352
 i =    91500, time =    45750.000, E =       100.2459909844
  H        12.6277195874        6.9243458036       32.3697492877
  C        12.1077165078        5.9295687837       32.3159904888
  H        12.8888707937        5.2743658144       31.9067373559
  C        10.8803686714        6.0245808685       31.4215805516
  C        11.7105302203        5.6184845147       33.7515689818
  C        11.2878013216        5.9860354945       29.9873096305
  H        10.2736565890        5.1699316210       31.5906731705
  H        10.1810242528        6.8860607633       31.6014810998
  H        12.6410174502        5.3124819777       34.2614623839
  H        11.3174265651        6.4697633360       34.3139103986
  H        10.9893210104        4.7757253118       33.7864510267
  C        10.1451649630        6.3811635932       29.0271621386
  H        11.6237463955        4.9412732752       29.6779023835
  H        12.0793189019        6.6787616548       29.8088179238
  C        10.5468084537        6.3006847651       27.5810768996
  H         9.3100237508        5.6547453955       29.2257936557
  H         9.8645579923        7.4522730122       29.2947584248
  C         9.5151683921        5.4466263099       26.7140465105
  H        11.5925952651        6.0027988384       27.4664712708
  H        10.5375408845        7.2834804803       27.1422005650
  C         8.2426939515        6.2867686483       26.4895300918
  H         9.9043907153        5.1446725449       25.7584861560
  H         9.3519091843        4.5552846189       27.3600725024
  C         7.0787923288        5.4935750253       25.8998888216
  H         7.9166230500        6.6687730135       27.4509141143
  H         8.5612081702        7.1384553969       25.8958802554
  C         6.6613546626        4.2081103963       26.6405546652
  C         7.4868654747        4.6859462085       24.6863179915
  C         5.8191800867        6.3249439581       25.5099231912
  C         6.8389649868        3.0437017230       25.8636194733
  C         6.1510564506        3.8685638048       27.8942318223
  C         7.3775323474        3.3293415392       24.6080868136
  C         7.9263926338        5.2541279011       23.5217659722
  H         6.0907219897        6.9912576944       24.6700035124
  H         5.6381068861        6.9943816837       26.3553534903
  C         4.5164568646        5.5837086962       25.1923778441
  S         6.3212845886        1.6533509622       26.6313565540
  C         6.1104790462        2.5639363281       28.1263801418
  H         5.9650958795        4.6769325178       28.5425615559
  C         7.6921551660        2.7061710811       23.4166750883
  H         8.0743565882        6.2676269165       23.5903885254
  C         8.1805162923        4.6067316534       22.3301828479
  H         4.4284761717        5.3634837172       24.2050091220
  H         4.4842089623        4.5746267897       25.5840940212
  C         3.2541185883        6.3251267768       25.5140057847
  C         5.8601958412        2.0220840870       29.5052087754
  C         8.1400417001        3.2920189179       22.2255827489
  H         7.5263780772        1.6283733583       23.3794909663
  C         8.6059787017        4.9555890994       21.0837779466
  H         2.3505567438        5.9441324776       25.0619587693
  H         3.2967390933        7.3551094591       25.0792643348
  C         2.9971175898        6.5197808321       26.9931712498
  C         5.7638415497        0.6382713707       29.7884998826
  C         5.7349191675        2.8721064043       30.6809932741
  C         8.5647967005        2.5169152872       20.9919227414
  C         8.8265819374        3.8580181257       20.3071831128
  S         8.9715222576        6.4958814055       20.2997383119
  H         2.9164757306        7.5501915691       27.2137050467
  H         3.8999229375        6.2537396189       27.5523412096
  C         1.8163921075        5.6403251522       27.4638167151
  N         6.0081121591       -0.3089636493       28.8096911883
  C         5.5930182375        0.0688659823       31.0143665904
  C         5.5507135123        2.2834773096       31.9177872040
  H         5.9260778029        3.9833735941       30.5648741747
  C         7.5839419501        1.5892324739       20.1457952971
  C         9.9158738148        1.7862025024       21.0722733431
  C         9.3335150192        4.2234811534       19.0151802880
  C         9.4155846834        5.6359722391       18.8535249292
  H         0.8639514293        5.8122336070       27.0031997860
  H         2.0219462318        4.6322768021       27.1229402850
  C         1.6756385318        5.4480471089       29.0431780337
  S         6.0319458781       -1.7502938790       29.5214103197
  N         5.6997818568       -1.3104480144       31.0176380061
  C         5.2092033694        0.8511640131       32.1426705687
  H         5.6657332940        2.9139510965       32.7379367435
  H         7.3900978979        0.5985806302       20.6221822898
  H         8.0821847426        1.3812235418       19.2338723977
  C         6.1977094419        2.2841936521       19.8301852172
  H        10.1493423265        1.3788837043       20.1162610454
  H         9.7481167555        0.9507821475       21.7088522600
  C        11.1217334975        2.6644059355       21.3720405849
  H         9.7739844257        3.3966499891       18.4835491746
  C         9.7291274935        6.3938457076       17.5347667184
  H         1.1013343948        4.5390098929       29.2187567148
  H         1.0893445201        6.2857226116       29.5606384596
  C         3.0604039455        5.2300904459       29.7355426802
  C         5.0105338927        0.2136202918       33.3784277991
  H         6.3206085839        3.4236192150       19.6998305994
  H         5.5265884627        2.2446074979       20.6186265537
  C         5.2783083952        1.6284528361       18.7749744470
  H        10.9571154336        3.3623939647       22.1286131810
  H        11.4154906423        3.3753793863       20.5263211362
  C        12.2777596836        1.8153408024       21.9061824199
  C         9.8497680300        7.7727791968       17.2873859946
  C        10.0048336861        5.5213256224       16.3951618384
  H         3.4562248646        4.2683082780       29.4216232388
  H         3.7642795638        6.0271007499       29.5926808061
  C         2.9094762839        4.9774300762       31.2129021432
  H         5.1692761520       -0.8343278126       33.3201831415
  C         4.6063477748        0.6729947843       34.6458729248
  H         5.2420998182        0.6975768283       19.2987691631
  H         5.8796530958        1.5008176268       17.8678322409
  C         3.8405693675        2.1095623099       18.6357852732
  H        11.9664619568        1.1349200729       22.6551546706
  H        12.7319623978        1.2190173259       21.1243538150
  C        13.4222383517        2.7243259526       22.4191536473
  N         9.6026808265        8.7318982184       18.2874624055
  C        10.2200212846        8.2854621263       16.0924736413
  C        10.2975345127        6.0181255379       15.1160415291
  H         9.8283446784        4.4259881212       16.4565981513
  H         2.4651418521        5.8361379872       31.7651878937
  H         2.3775877902        4.1101708870       31.4750334197
  H         3.8497446670        4.7529519771       31.8265150651
  S         4.1773705175        2.2062136384       35.1361888836
  C         4.4959280216       -0.2946911681       35.7394146002
  H         3.2560306466        2.4260454424       19.5252690890
  H         3.9157896174        2.9688035735       18.0352819899
  C         3.0189302645        1.0870805742       17.7970036106
  H        13.0107130620        3.6925381722       22.6897141278
  H        14.0911695228        3.0422440496       21.5394366579
  C        14.3212602756        2.0214238698       23.3258846363
  S         9.9334132837       10.1129913253       17.6372140255
  N        10.2414898886        9.6487155313       16.0833272073
  C        10.4548583206        7.4766105206       14.9116160878
  H        10.3312139449        5.3102250354       14.3006223845
  C         4.0296622429        1.5883579762       36.7806597019
  N         4.1681181755        0.3151694496       36.9032129975
  O         4.5790524025       -1.5158708228       35.5261134180
  H         3.7036624618        0.5518585425       17.1385381546
  H         2.3090360950        1.5656206283       17.1601520370
  C         2.2102510243        0.1968250971       18.7666041025
  H        13.7140601232        1.8006744753       24.1898373223
  H        14.7250862856        1.1130842617       22.9331917404
  C        15.4176699352        2.9108619450       23.7261751954
  C        10.7148939767        8.2118108453       13.7018553495
  S         3.6803062963        2.5652844631       38.2935573808
  C         3.9472633878       -0.4817294867       38.1442346758
  H         2.5560509432        0.4137182163       19.7742744335
  H         1.1113403143        0.2962495190       18.7388242587
  C         2.5710099276       -1.2696045858       18.3478595007
  H        15.7965314400        2.6419440650       24.7012334425
  H        14.9676121638        3.9275492695       23.8764918960
  C        16.6852215068        2.7908400468       22.7754721598
  H        10.4671927361        9.2676974119       13.6245210199
  C        11.1523338302        7.7777865125       12.4608286090
  H         3.4498466300        0.1441052417       38.9132473942
  H         3.2454441552       -1.2577260602       38.0511679729
  C         5.2502522521       -1.0066323097       38.6622557700
  H         2.1769557915       -2.0537512914       19.0700179389
  H         3.6392618422       -1.3458510030       18.2248638001
  C         2.0166525919       -1.6778375849       16.8910071791
  H        16.2864375743        2.5034913197       21.8024854452
  H        17.1305290666        3.7502245022       22.5775204614
  C        17.7225255076        1.7512713380       23.2973794631
  S        11.6017044965        6.1946794418       12.0124076916
  C        11.4181020494        8.7562126881       11.3826953667
  H         6.0747593096       -0.2161919995       38.6223625122
  H         5.1683386106       -1.3302353799       39.6409494510
  H         5.6172489822       -1.7901165489       38.0480919508
  H         1.2369973853       -1.0081173616       16.6227969688
  H         1.6412806588       -2.6734296693       16.8064663923
  H         2.8583966449       -1.6247308294       16.1896630701
  H        17.6082330324        1.5338811640       24.3857457682
  H        18.6854900120        2.1684981059       23.0582419063
  H        17.6057810687        0.8261039856       22.8557072353
  C        11.9564807613        6.8161274741       10.3507111396
  N        11.7545926189        8.1542280212       10.2283999774
  O        11.3264589581        9.9589492186       11.5761498935
  S        12.6118253203        5.8932622098        9.0365719218
  C        11.9778748320        8.9296166972        9.0510139278
  H        12.3326878098        9.9940529124        9.2332631922
  H        12.7705322002        8.4494179973        8.3211368888
  C        10.6251222175        9.0038266651        8.2947997408
  H        10.5908528261        8.2738118547        7.4603000830
  H         9.8541465470        8.6887353451        8.9890357402
  H        10.4106110801       10.0152823179        7.9328954113
  H         4.3602726586        1.3150024710       12.7955606050
  C         3.6798883233        2.1736127471       12.7960772712
  H         4.3950953828        3.0137112961       12.9059824121
  C         2.9347857560        2.3394517352       11.4243094833
  C         2.6904060411        2.0570608484       14.0102747537
  C         3.9125447864        2.5694562453       10.3521615349
  H         2.1229145154        3.0994125230       11.4400897637
  H         2.4386899146        1.4017009326       11.1599835734
  H         1.9731585243        1.2948805804       13.8847431591
  H         2.1083231102        2.9467534471       14.0671278232
  H         3.3153005621        1.9429811297       14.8844981299
  C         4.6992463419        1.2703112282        9.9662746434
  H         3.5260555613        3.0673230417        9.4794354465
  H         4.5186416588        3.3298162396       10.7856380308
  C         5.3720934692        1.3939055261        8.5654431656
  H         3.9989914386        0.4207517886        9.8903998164
  H         5.3754928871        1.0316663186       10.8338856158
  C         6.5918232330        2.3183293191        8.5989800998
  H         4.6233687349        1.8321132393        7.8242816516
  H         5.7018389974        0.3472448054        8.2971870168
  C         7.7973884734        1.6240849525        9.1588338673
  H         6.7621691221        2.5456144493        7.5780035838
  H         6.3443092503        3.2843035769        9.0495240805
  C         9.0740246129        2.4461724452        9.3784911073
  H         8.0681302907        0.7469704664        8.5034839136
  H         7.5084504698        1.1483838372       10.1182815537
  C         8.6956730248        3.7637440681       10.0855760821
  C         9.5695558060        3.2612522416        8.1777058098
  C        10.1880792893        1.7797033974       10.2401246659
  C         9.0293992464        4.8677036788        9.3653756239
  C         8.1198255738        4.1131721524       11.3427762543
  C         9.5046820206        4.6187229557        8.0985993864
  C        10.1461200720        2.7462069003        7.0279296482
  H         9.6754704387        1.6303383724       11.2210089033
  H        10.2449623039        0.7391103946        9.7696145710
  C        11.4613113246        2.6057669101       10.4653970333
  S         8.6669538934        6.3686809697       10.1569073609
  C         8.0526550275        5.4907633581       11.5029971468
  H         7.8022854496        3.3455581182       12.0012569264
  C         9.8352906154        5.3205589527        6.9420704974
  H        10.2479493601        1.7294326233        6.8696587551
  C        10.4671042860        3.4180013816        5.8613466683
  H        11.1184013880        3.6121293978       10.6793891933
  H        12.0046020286        2.5045363480        9.5436050643
  C        12.3519822666        2.2231215798       11.6410522068
  C         7.6293406540        6.2302535203       12.8064569174
  C        10.3300647400        4.7344820612        5.7830433431
  H         9.7213127969        6.3849885274        6.9191425993
  C        10.8983574509        3.0682421633        4.5588545746
  H        13.2543460992        2.7729661547       11.6097379873
  H        12.5574656005        1.1711248296       11.5350460032
  C        11.6554874590        2.4816432214       13.0105402757
  C         7.4361718998        7.6359733770       12.8885180857
  C         7.2769826823        5.4552058927       14.0088760428
  C        10.7599531543        5.4800543680        4.5378405233
  C        11.1201081050        4.1705423835        3.7475013511
  S        11.2721669440        1.6313325584        3.7282846053
  H        11.6704359908        3.5370046987       13.1778013025
  H        10.6453055665        2.2759018860       12.9268127383
  C        12.3557124992        1.7047764580       14.2224432242
  N         7.8618249287        8.6026800359       11.9615678218
  C         7.0454192543        8.2162447351       14.1272250634
  C         6.8073253842        6.0498769048       15.2035896080
  H         7.3578645212        4.3811709725       13.9707699352
  C        12.0350977224        6.2739659531        4.8540289028
  C         9.6930688704        6.3577344520        3.8789771060
  C        11.4193707543        3.8129589779        2.4055082227
  C        11.5193759664        2.4997998619        2.2586867776
  H        13.4352685304        1.7401299387       14.1140892791
  H        11.9042148856        0.7013334087       14.2134263898
  C        12.0341535400        2.2701007313       15.5588354470
  S         7.5700104671       10.0843065484       12.6314185422
  N         7.1300568320        9.6119473402       14.1276018833
  C         6.7447685966        7.5356404493       15.3477806461
  H         6.6252876837        5.3968899043       16.0637951229
  H        11.8232339453        7.0385111700        5.5735344818
  H        12.2292882933        6.9099856952        3.9249271836
  C        13.2737984083        5.5722265004        5.2618363965
  H         9.5011714896        7.2261925681        4.5172088107
  H        10.0268187108        6.7461785054        2.9678809276
  C         8.4448008576        5.6218211723        3.5642038861
  H        11.7020268356        4.5807734165        1.7333860091
  C        11.8749083395        1.7464705400        0.9522745133
  H        11.8215595977        3.3260679297       15.4061939064
  H        11.1366137622        1.8186576327       15.9356399701
  C        13.2251527793        2.0255431727       16.5125409612
  C         6.5373681022        8.2011632162       16.5994339953
  H        12.9971312833        5.0861943105        6.1932422243
  H        13.5913680797        4.8893153375        4.4986965561
  C        14.4372685796        6.4918530526        5.4817025817
  H         8.2133749615        4.9775962689        4.3902130881
  H         8.7392052658        4.9179357421        2.8465803411
  C         7.3040373085        6.4446272223        3.1496325148
  C        12.0228350814        0.3119232851        0.8782891972
  C        12.1564935636        2.5263162179       -0.3267648460
  H        14.1808452751        2.3202529995       16.0494801376
  H        13.2421435350        1.0285204585       16.7533006670
  C        12.9933923285        2.8129584315       17.7896239427
  H         6.6189716813        9.2825081318       16.4790070766
  C         6.2957778970        7.7579283688       17.8971852069
  H        14.1469848161        7.3926058461        5.8972286947
  H        14.9309327796        6.6256993278        4.4898656166
  C        15.4082112646        5.8607492174        6.4839600111
  H         6.9073205517        7.0045695560        4.0008873211
  H         7.6978272405        7.0801233653        2.3298002970
  C         6.1885398013        5.6126286672        2.4381567241
  N        11.8765437031       -0.5773381079        1.9804120108
  C        12.2448139457       -0.3717039778       -0.3091342805
  C        12.4315074545        1.8485271946       -1.5237542726
  H        12.0753242573        3.5536175389       -0.3658036565
  H        11.9607018773        2.6932165303       18.1136029707
  H        13.1092001681        3.8699794878       17.6604834979
  H        13.7299374622        2.6426117962       18.5272114229
  S         5.9115117226        6.1227442110       18.5280341613
  C         6.2884950226        8.8413133725       18.9071044446
  H        15.2011446181        6.1912211838        7.4842258735
  H        15.2176738565        4.8466041668        6.6018111162
  C        16.9254843432        5.9869880141        6.1294590520
  H         5.8682581918        4.8271954974        3.1269319987
  H         6.5661947384        5.0742833572        1.4756299158
  C         4.9951993232        6.4705586296        2.0454271742
  S        11.8976819966       -2.1027029233        1.4739225791
  N        12.2940826075       -1.7836292445       -0.0772370818
  C        12.5274352032        0.3372232597       -1.5154225941
  H        12.2927495957        2.3816484854       -2.4116078073
  C         5.6603149680        6.9530221970       20.0479529546
  N         5.9478898043        8.2956082815       20.0525698790
  O         6.4424483181       10.0430090738       18.7011159706
  H        17.1376909984        5.9232852290        5.0715393042
  H        17.3667013553        6.9972453313        6.3407558855
  C        17.8487186069        4.9874242233        6.8213424493
  H         4.4515813303        5.9477913902        1.2782675534
  H         4.2533595770        6.6540533252        2.8531182916
  C         5.4144405841        7.8820488057        1.5515966312
  C        12.7641933329       -0.5271801644       -2.6235681261
  S         5.2855528472        6.1320330205       21.6049618115
  C         5.7354847432        9.1646524823       21.2346032280
  H        17.4264514337        4.5984602839        7.7279662522
  H        18.0757924755        4.1253620882        6.1696488001
  C        19.1391296414        5.6825804151        7.3311439766
  H         6.2532228191        7.7737973960        0.8903283584
  H         5.7615612392        8.5366170501        2.3875811589
  C         4.2063198400        8.6138460617        1.0430738930
  H        12.5589473307       -1.5246380309       -2.3511859389
  C        13.3819484413       -0.3291960202       -3.8642209959
  H         5.2767664229        8.6504371691       22.0170879685
  H         5.0611913416        9.9761232051       20.9179904399
  C         7.1541321358        9.6786096884       21.6336827997
  H        19.4331747898        5.1851849217        8.2218963100
  H        19.0459807724        6.7555684516        7.5305928602
  C        20.2749042666        5.6517863868        6.3021086904
  H         3.9258413831        8.2037145089        0.0701711206
  H         3.4092367155        8.6232770833        1.7231481249
  C         4.4859643916       10.0769733583        0.7990475720
  S        13.8478727290        1.2022361468       -4.4206813843
  C        13.3214388720       -1.3712018452       -4.9181433537
  H         7.1642929894       10.0630569671       22.6841560972
  H         7.5917001124       10.4297950180       21.0533138168
  H         7.9116478692        9.0101676652       21.5725272446
  H        20.3236101651        4.6377919336        5.9675754991
  H        20.2048324363        6.3772836669        5.5069921256
  H        21.1943976351        5.8117414203        6.8951878890
  H         4.3103313388       10.7494434113        1.6194802575
  H         5.6282250684       10.0460108861        0.6570526779
  H         3.9602568854       10.4848861556       -0.0645851123
  C        14.2635868676        0.3541669255       -5.9331750828
  N        14.0306223424       -0.9906719676       -5.9749350329
  O        12.7878928157       -2.4602710013       -4.6572646016
  S        15.0919284733        0.9489405856       -7.3557089048
  C        14.1212293442       -1.9118948407       -7.0887546710
  H        14.1643769825       -2.9213591196       -6.7840020583
  H        15.0458830793       -1.6432705529       -7.5855304604
  C        12.8678332784       -1.7033424709       -7.8838654596
  H        12.1870466014       -2.5086337001       -7.7242270997
  H        12.9501249760       -1.6065865535       -9.0160911860
  H        12.3802721706       -0.8988947611       -7.4135526707
