352
 i =    77800, time =    38900.000, E =        99.9789545784
  H        12.2944991713        6.8505163579       32.3554870648
  C        11.7050063782        5.9571973524       32.4609315022
  H        12.4529823621        5.1377347752       32.4657759491
  C        10.6881660053        5.8802503107       31.2390309774
  C        11.1408141321        6.1240496100       33.8132043418
  C        11.3254234354        5.8908809311       29.8274711983
  H        10.0990509841        4.9279948227       31.4030794230
  H         9.9531097976        6.7078065934       31.3229443843
  H        10.1294111484        6.5581601125       33.8020400225
  H        10.9526812317        5.1865063783       34.2789252851
  H        11.7700285506        6.7494561605       34.4586404493
  C        10.2965827911        5.7810263135       28.7173125782
  H        12.0464982844        5.0129545547       29.8117412480
  H        11.9906858458        6.7182708042       29.7519799891
  C        10.9344213597        5.7193948483       27.3262769560
  H         9.7614427580        4.9176282472       28.9604631863
  H         9.7854697401        6.7208124111       28.9008172266
  C         9.9638253567        4.9791545747       26.3874136586
  H        11.8604383967        5.2064817023       27.3179969700
  H        11.1099759512        6.7407986610       27.0053897394
  C         8.6500296711        5.7789787451       26.0837391190
  H        10.5495798858        4.8315250398       25.5007107580
  H         9.7518636802        3.9638370433       26.7705985017
  C         7.5092410897        5.1167414495       25.4063165297
  H         8.3503198515        6.2463106088       27.1109498100
  H         8.8503028856        6.6541574751       25.4210032026
  C         7.1043184120        3.7974655359       26.1119466072
  C         7.8415439253        4.4173978388       24.1920410333
  C         6.3693496086        6.1321130507       25.2287894445
  C         7.2703111990        2.6759982637       25.2974598712
  C         6.4752478082        3.3928032129       27.3235564607
  C         7.7534456527        3.0491533026       24.1006532862
  C         8.2471311996        5.0710314338       23.0257588585
  H         6.6696371406        6.9040801599       24.4977930976
  H         6.2953020884        6.7038483811       26.1926248550
  C         5.0129323920        5.4953042296       24.8895018272
  S         6.9564344033        1.1598608893       26.0579720762
  C         6.2803150494        2.0372552244       27.4049795356
  H         6.2310146347        4.1500469927       28.0634976824
  C         8.1344101008        2.4301286009       22.9151701258
  H         8.4141110215        6.1058611322       23.1058963134
  C         8.6396371342        4.4631110146       21.8519152076
  H         5.2858971328        5.0500557349       23.8876040301
  H         4.8545977065        4.6425004038       25.5684355485
  C         3.8912342025        6.5403008616       24.9236591999
  C         5.7496989942        1.3315728673       28.6538093122
  C         8.5671708965        3.1052432136       21.7555959384
  H         8.0954693454        1.3285052085       22.7999586875
  C         8.8899481492        4.8547126456       20.5678016493
  H         3.1253530901        6.3195560343       24.3217685382
  H         4.3837914864        7.4131383655       24.4754623957
  C         3.2578745674        6.7408638357       26.3877685447
  C         5.9194251990       -0.0683236111       28.9152068778
  C         5.1899876801        2.1188775620       29.7965366717
  C         8.9881871569        2.3995636744       20.4843967158
  C         9.2709679753        3.7255310188       19.7862229819
  S         9.1822376835        6.3950124316       19.7802922740
  H         2.7189391804        7.6920173793       26.4332414857
  H         4.1017127445        6.7250350768       27.0833324626
  C         2.3137324563        5.5379966185       26.6521541174
  N         6.4370056220       -1.0347802214       28.0550671866
  C         5.6236305702       -0.6413844580       30.2336588631
  C         4.9882356472        1.5474949004       31.0485746031
  H         4.9381398981        3.1374965657       29.7626161792
  C         7.7788875188        1.5339344649       19.8179778758
  C        10.3091185991        1.5771844043       20.6890332476
  C         9.7674053448        4.2031300943       18.5651697077
  C         9.7277949525        5.5730800345       18.4186155252
  H         1.4195698431        5.6081867783       25.9732949168
  H         2.6971401141        4.5621294804       26.5188545453
  C         1.6440514556        5.5554944837       28.0247419591
  S         6.3627908432       -2.4862437943       28.7594529251
  N         6.0192053759       -1.9761884788       30.2871528738
  C         5.3162213447        0.1276155244       31.3506560165
  H         4.5598069529        2.1654347996       31.9158811862
  H         7.1475279004        1.0419516260       20.5903372625
  H         8.3115377458        0.8042411804       19.1948853859
  C         6.8773186913        2.3732449179       18.8662230226
  H        10.4504247561        0.8756440384       19.7857345233
  H        10.1148549504        0.8601486281       21.4989046683
  C        11.5570345129        2.3680691764       20.8505872870
  H        10.1949374694        3.5431195538       17.8135136552
  C        10.1374674596        6.3591345152       17.1965832153
  H         0.9647453404        4.6956128555       28.1366343304
  H         1.0505207472        6.4909930062       28.1383078695
  C         2.6331526236        5.3891079832       29.1776242236
  C         5.1581108083       -0.5095650446       32.6061916110
  H         7.4284860153        2.7677112868       18.0145901241
  H         6.3706439765        3.1618652209       19.4550748494
  C         5.8306062018        1.5673871947       18.2037370891
  H        11.3148125537        3.1292302100       21.6976567213
  H        11.9571213266        2.8009204890       19.9415240817
  C        12.7347354884        1.5110074946       21.4194684941
  C        10.1571633013        7.8118915849       17.0833235437
  C        10.2994844966        5.6466187240       15.8872566201
  H         3.1918516152        4.4772233113       29.0029381790
  H         3.4027908516        6.1335350364       29.1462173619
  C         1.9290886182        5.4195374116       30.5492352408
  H         5.4799533294       -1.5810329024       32.6164344712
  C         4.8532153891       -0.0850514094       33.8450152305
  H         5.5141389814        0.9603551881       18.9676128387
  H         6.2442198528        0.9718239680       17.3865717472
  C         4.5776333494        2.5066986138       17.6707531884
  H        12.4935456003        1.0480337388       22.3659693342
  H        12.9966474392        0.6061321481       20.8844234055
  C        14.0258106081        2.2594236931       21.6787126377
  N         9.6407661173        8.7050683637       18.0608543474
  C        10.5605657512        8.3704709384       15.9336922400
  C        10.7710053338        6.2737909638       14.7512346624
  H        10.3124872683        4.5474506847       15.8497411694
  H         1.3894546988        6.3225253501       30.6460448092
  H         1.2173838162        4.6175390064       30.7951103111
  H         2.7197866343        5.4219546618       31.2323418755
  S         4.4342417628        1.4729870889       34.3941788480
  C         5.0610929104       -1.0466578217       34.9253631160
  H         4.6279112619        3.5360751648       18.0620729928
  H         4.7273942875        2.6525127126       16.5991577325
  C         3.2071509949        1.8937018222       17.8538488786
  H        13.8956172038        3.2419077640       21.1592485585
  H        14.8637484865        1.7488652971       21.1948808864
  C        14.4346500755        2.3333390468       23.1352904254
  S         9.8592776740       10.2026838015       17.4886091813
  N        10.4207909515        9.7666407752       16.0317252615
  C        10.9745314206        7.7633876806       14.7125919941
  H        10.9366503401        5.6241400874       13.8588528444
  C         4.4949609845        0.8092295443       36.0285560379
  N         4.6424870624       -0.5257890612       36.0698189424
  O         5.3976341410       -2.2733332764       34.7990218151
  H         2.4977093307        2.6844896528       17.5005676423
  H         2.9816348679        1.7934217066       18.9551661533
  C         3.0624494742        0.5689911879       17.2013221452
  H        13.6163601964        2.7253896425       23.7496693607
  H        14.6363855300        1.3138306818       23.4508116572
  C        15.5497187036        3.3281539058       23.4874536835
  C        11.2517222430        8.5579676681       13.5796729809
  S         4.1039209446        1.6928685338       37.5599604360
  C         4.5258918005       -1.2495621723       37.3421353001
  H         2.6506839138        0.7733629756       16.2645217116
  H         4.0403073274        0.0522938515       17.0498502788
  C         2.1252948677       -0.4585042025       17.8302886008
  H        15.5869346641        3.3872192590       24.5203484432
  H        15.2074232578        4.2583960031       23.0625092101
  C        16.9092645931        3.0561291564       22.9046627054
  H        11.1323285975        9.6637686708       13.6878850583
  C        11.6251337872        8.2688476927       12.3487665807
  H         3.7420387145       -0.8807542715       37.9019721667
  H         4.1594940893       -2.2913443100       37.0979999245
  C         5.8818464436       -1.4106378573       37.9493777413
  H         1.7344165406       -1.0049902606       16.9969370265
  H         1.3170224833        0.0928272370       18.2113927906
  C         2.5996051517       -1.4256798946       18.9135261074
  H        16.7907100005        2.5176120485       22.0262088612
  H        17.4493359416        3.9425011399       22.8152643548
  C        17.8118853581        2.1125371091       23.7662306799
  S        12.2348643471        6.7480149637       11.8451082027
  C        11.6467237762        9.3080282275       11.3288100424
  H         5.9472744104       -2.3912857309       38.4170639739
  H         6.6910466426       -1.2919855914       37.2769711156
  H         5.9731550933       -0.6716191799       38.7578649422
  H         1.7830583774       -1.6610522675       19.5974796160
  H         3.4022191888       -1.0638479291       19.5441128742
  H         2.9967259559       -2.2052921374       18.3604373488
  H        17.6616326422        1.0475085941       23.4627839515
  H        17.6645536447        2.2353730734       24.9000197946
  H        18.8930100026        2.3405995186       23.6541016409
  C        12.4108702520        7.4560303737       10.2608862164
  N        12.1344879528        8.7810410805       10.2457930831
  O        11.3247627738       10.4772154192       11.5299837986
  S        13.4016011467        6.7340133551        8.9372816862
  C        12.2737575568        9.5472141550        8.9771059024
  H        12.4474190625       10.5978105864        9.1879949225
  H        13.0367693540        9.2479096235        8.1875439471
  C        11.0244867330        9.4973497048        8.2666829870
  H        10.4119196861       10.3042842945        8.6115287449
  H        11.1779386943        9.5220595772        7.2015107299
  H        10.5575727241        8.5669265237        8.4527215931
  H         2.6629036556        0.8020043331       13.0287094930
  C         3.3048233090        1.5811818882       12.6866038251
  H         4.3303064529        1.2465725314       12.6728041887
  C         2.9787671288        2.0585504887       11.3013870851
  C         3.2752079305        2.7061190418       13.7301064095
  C         4.2348902343        2.6273387121       10.6853725860
  H         2.0731011565        2.6809480340       11.3161461543
  H         2.6778765995        1.2293546744       10.6587960046
  H         4.2780854267        3.0794626709       13.8048683229
  H         2.9520908499        2.4759228851       14.7438006006
  H         2.6269886122        3.5367640575       13.3449579996
  C         5.0706499909        1.5368902825       10.0500328071
  H         4.0350664289        3.4057299520       10.0033621974
  H         4.7806015993        3.0854312279       11.4380464805
  C         5.6329385876        1.7885639843        8.6319289120
  H         4.4997270049        0.6048885717        9.8888847344
  H         5.9188468804        1.3480575556       10.7423993464
  C         6.8932027880        2.6531809668        8.5101648755
  H         4.8821666011        2.3043069575        8.0229423999
  H         5.7076251382        0.7986937510        8.1488923801
  C         8.1616436263        2.0103160598        9.0145442367
  H         6.9409329587        2.9346610812        7.5221906439
  H         6.6016877591        3.5622017602        9.0269233630
  C         9.3584781742        2.9921291604        9.2372480006
  H         8.4677038330        1.3942622706        8.2081528064
  H         8.1009560643        1.2868981918        9.7941307909
  C         8.9954543991        4.2777260875        9.9367000658
  C         9.8205019160        3.7046533325        7.9908838880
  C        10.5691610314        2.2217990291        9.9398311860
  C         9.1092386328        5.3315826349        9.0886529406
  C         8.5127229923        4.6764401186       11.1747257082
  C         9.6928154337        5.0327374085        7.9014478002
  C        10.2511121089        3.0848864838        6.8334107375
  H        10.1246545867        1.5417894365       10.6897301607
  H        11.0724033500        1.5579425895        9.1844540469
  C        11.6440220254        3.1964921794       10.4917707143
  S         8.5854641201        6.8191403299        9.7118027649
  C         8.1945938455        5.9576000888       11.2834941732
  H         8.2662173639        3.8682865283       11.8563997122
  C        10.0494135686        5.6345940545        6.7585205743
  H        10.2556281711        2.0134964375        6.9126948736
  C        10.5398367240        3.7164300622        5.6787980394
  H        11.2174729593        3.8613821375       11.2983688039
  H        12.0158473156        3.6702523080        9.6249481663
  C        12.8170238332        2.6388116795       11.2980931245
  C         7.6493821398        6.6763870185       12.4940254370
  C        10.4350870750        5.0342434378        5.5365094895
  H         9.9212801681        6.6668675450        6.6949945871
  C        10.9798077813        3.2773819773        4.4240239484
  H        13.4976597144        3.5725420131       11.4019489272
  H        13.3165461292        1.9076605339       10.6883959456
  C        12.3641932907        2.1459079181       12.6623994068
  C         7.7472738447        8.0769115040       12.7569657249
  C         7.1880083978        5.8214325994       13.6616085668
  C        10.8954771876        5.7341226514        4.2741542201
  C        11.1736797345        4.3904284923        3.6029908158
  S        11.2001738771        1.7300950327        3.6678737009
  H        11.9057739508        2.9016708930       13.3521145328
  H        11.6648523383        1.2881478602       12.6467528592
  C        13.5105934461        1.5848621088       13.4830925146
  N         8.2443245841        9.0133386718       11.8330738838
  C         7.4018676475        8.6172859132       14.0475569262
  C         6.9916598687        6.3034372502       14.9220598958
  H         7.1380569368        4.7494838206       13.5311814752
  C        12.1812591640        6.5914853186        4.4650572400
  C         9.7910051968        6.5524547001        3.5828265676
  C        11.5275479540        3.9771289835        2.2737113919
  C        11.5947058116        2.5871156547        2.1964024818
  H        14.2082875572        2.4303243497       13.4722205300
  H        14.0380061096        0.8567299549       12.8909520612
  C        13.1512118745        1.0695547317       14.8618474983
  S         8.1155222066       10.4439818899       12.5612263883
  N         7.6061993539        9.9821063943       14.0573059365
  C         7.0499863680        7.7552718998       15.1250737095
  H         6.7313054588        5.5160320824       15.6509740999
  H        11.9442386752        7.3119929355        5.2229029061
  H        12.3580857161        7.0462362430        3.5688039236
  C        13.4153641670        5.6976496863        4.8801132893
  H         9.5541342952        7.4742799420        4.0380432831
  H        10.2696593115        6.8444984355        2.6241547696
  C         8.5205546872        5.8183513183        3.2633630919
  H        11.6743104400        4.6618126111        1.4709839748
  C        11.8123451401        1.8187361138        0.8577875260
  H        12.2267118033        0.4757292147       15.0142222339
  H        13.9803395916        0.3878640816       15.1019777978
  C        13.0844661037        2.2539156785       15.9014074068
  C         6.6688849622        8.4222034629       16.3447220031
  H        13.1837025652        5.0238023031        5.7109860318
  H        13.6830251131        4.9873956961        4.1553486613
  C        14.6613509010        6.4577880539        5.1662224934
  H         7.9201427765        5.6211181228        4.0937628130
  H         8.8042621921        4.8524393237        2.8865448580
  C         7.5274336965        6.5624142155        2.3165637118
  C        11.8392328332        0.4144551616        0.7046452332
  C        12.0249933615        2.5082295845       -0.4047687240
  H        12.5288174900        3.0036158824       15.4441210343
  H        14.0389740387        2.7227440968       16.1754699458
  C        12.3469687392        1.7727088474       17.1385708459
  H         6.5143782875        9.4360542543       16.1720983755
  C         6.4090475759        8.0152534369       17.6402205746
  H        14.5368765346        7.0396609918        6.0729575029
  H        14.9232851222        7.1089882472        4.3074607772
  C        15.8907273312        5.5537821077        5.3779627745
  H         7.3427658390        7.5874376981        2.7169462589
  H         8.0296067376        6.7316009920        1.3827350715
  C         6.2109864888        5.7967776015        2.1216096899
  N        11.7773955520       -0.5688070440        1.7026977425
  C        12.0495963342       -0.2006291666       -0.5510467389
  C        12.1786654801        1.8771768763       -1.6648183799
  H        11.9169124518        3.5789430830       -0.3263624197
  H        12.7344120561        0.8630353550       17.5871970458
  H        11.2662433386        1.7434554486       17.1315037749
  H        12.5132367859        2.5527067553       17.8838329489
  S         6.2276106413        6.3717385767       18.2252935476
  C         6.3044828245        9.0827408890       18.6116267106
  H        15.6280647798        4.5051431029        5.6555849198
  H        16.5473754209        5.5241369013        4.5071711689
  C        16.6898062747        5.9626893471        6.6123867840
  H         6.0618683565        5.1002954867        2.9481835274
  H         6.2157911390        5.3092652919        1.2088514691
  C         5.0578655830        6.7803804790        2.2196505953
  S        11.8245266791       -2.0792175899        1.0233962668
  N        12.2867827343       -1.5283447577       -0.4892707528
  C        12.3371494229        0.4455499804       -1.7619938512
  H        12.2575582709        2.4131062195       -2.5975092707
  C         6.1839381416        7.1469351516       19.8087683614
  N         6.1145483959        8.4798739042       19.8084650230
  O         6.4008266090       10.2876747642       18.4013187844
  H        17.2339519924        6.8927162536        6.3253392855
  H        16.0688209316        6.2747198272        7.3953627069
  C        17.7026293085        4.8847079465        7.0865235682
  H         4.1994904347        6.2843273708        2.6785810165
  H         5.1722813287        7.5325310964        2.9677713361
  C         4.7486179813        7.4834011209        0.9037176115
  C        12.7878763601       -0.3155846361       -2.9280290281
  S         5.7398910739        6.3132262753       21.3085535767
  C         6.0271731874        9.1860420615       21.0693789999
  H        17.1517961868        4.3439041976        7.8451386231
  H        17.9951508294        4.2912266393        6.1627824659
  C        18.8805766675        5.6486664979        7.7814778519
  H         4.5585423138        6.8788723384        0.0372757470
  H         5.6141223518        8.1096637098        0.5921479675
  C         3.6042363394        8.5130513001        1.0665883975
  H        12.4343039797       -1.3850024043       -2.9992615628
  C        13.2561914854        0.1717288720       -4.1281615499
  H         5.3938612568        8.8212233082       21.8957966454
  H         5.5519928149       10.0730261641       20.8689014201
  C         7.4726426684        9.5983092657       21.4816930355
  H        19.0649926609        5.1505877501        8.7808530624
  H        18.6633189021        6.6698460565        7.9809168864
  C        20.1418246243        5.7474909457        6.8702379509
  H         3.4981346237        8.9140611388        0.0833825175
  H         2.7066065295        8.1273028414        1.3990378830
  C         3.9700436582        9.6643632172        2.0519083684
  S        13.8655811359        1.7065885292       -4.5193231844
  C        13.4504219506       -0.8620751117       -5.2128111287
  H         7.3645733155       10.5510205932       22.0938269646
  H         8.2131608935        9.7626464551       20.7145734488
  H         7.9834361721        8.8862889455       22.0991583420
  H        19.8434676577        6.4160289841        6.0446852578
  H        20.9975397681        6.1728107051        7.2664980742
  H        20.3060182930        4.7791687995        6.4634852734
  H         4.9779242089       10.0014149087        1.7281649054
  H         3.3916013477       10.5435332961        2.0148362327
  H         4.0383917266        9.4205922822        3.1208118443
  C        14.3703060017        0.9476244276       -6.0237373014
  N        14.1194083862       -0.3600053049       -6.2549858861
  O        12.9741849751       -1.9945101852       -5.2624495885
  S        15.1996214916        1.8275943117       -7.2958551815
  C        14.2812393250       -1.0572055269       -7.5365780400
  H        14.6213157960       -2.0597951894       -7.1422728016
  H        15.1574549113       -0.8411955689       -8.1070207803
  C        13.0927353847       -1.0967345808       -8.3699772429
  H        12.3062387347       -0.4677242086       -7.8422498575
  H        12.7677789161       -2.0684550705       -8.4797911962
  H        13.0761863673       -0.6557017932       -9.3542343098
