352
 i =    91800, time =    45900.000, E =       100.3440700923
  H        12.5543418552        6.8948726709       32.9650389986
  C        11.8576977706        6.1227451114       32.7845475467
  H        12.5342682596        5.3364023634       32.4881535841
  C        10.7521507123        6.2815008386       31.6734873399
  C        11.2400148075        5.7262483441       34.1194950224
  C        11.3151856791        5.9692451685       30.3612892228
  H         9.9170950177        5.6432706067       31.9265801124
  H        10.4089798057        7.2416917909       31.6449121046
  H        11.8805161143        5.7818160059       34.9934877639
  H        10.4324152431        6.4364636441       34.4030138360
  H        10.7626990026        4.7433670293       34.0636269498
  C        10.2190456421        5.7218438471       29.3798865521
  H        12.0034567064        5.1880440420       30.3657994736
  H        11.9116333695        6.8485365090       30.0700307981
  C        10.5229614295        5.9723514198       27.8460657785
  H         9.7806897336        4.7460336287       29.5908684881
  H         9.4037820832        6.3841609446       29.4926207586
  C         9.5441598780        5.2252705518       26.9126279177
  H        11.5275587400        5.6631415423       27.6662481656
  H        10.5755315816        7.0285341922       27.6143666205
  C         8.3521787467        6.1450903232       26.6195074582
  H        10.0777552507        5.1235324774       25.9478187430
  H         9.3245391285        4.2510899011       27.3228173913
  C         7.1611376711        5.4369459658       26.0108393124
  H         8.0745365028        6.4961186783       27.5888026918
  H         8.6908670280        6.9849430535       26.0546927815
  C         6.7823780282        4.1057222276       26.7035161815
  C         7.5280028484        4.7350302923       24.7300499637
  C         5.9452907776        6.3589146389       26.0446688989
  C         6.9568124410        2.9922687763       25.9167521224
  C         6.3768368892        3.7411844361       28.0423238416
  C         7.4364256909        3.3678734345       24.6828937461
  C         7.9686988042        5.2888193060       23.5683679774
  H         6.1579451583        7.4008496614       25.7929680642
  H         5.6116212663        6.4095268818       27.0771060286
  C         4.7263789493        5.6763306192       25.3077901709
  S         6.5929189062        1.4941261882       26.6971464149
  C         6.2719388003        2.3595454550       28.0953359760
  H         6.2368137605        4.4954193706       28.7252136114
  C         7.7824783189        2.7068373534       23.5090932585
  H         7.9020470154        6.2837324642       23.4754131752
  C         8.2526621723        4.6766187518       22.4152096108
  H         5.1184529087        5.3430780599       24.3007653214
  H         4.4448751102        4.7254276120       25.7500543968
  C         3.4138726567        6.4704590608       25.1468864473
  C         5.7507311368        1.6649934548       29.3327624062
  C         8.1664932797        3.3718584377       22.3206038206
  H         7.5976775287        1.6452036895       23.4150959499
  C         8.6906526569        5.0674794768       21.1417825954
  H         2.8214176947        6.1416658828       24.2461734272
  H         3.7134201936        7.5063966981       25.1122212986
  C         2.5124061104        6.5611647709       26.3897449631
  C         5.8345442888        0.2694268292       29.6460729539
  C         5.2285553873        2.5033757302       30.4175366447
  C         8.5068813056        2.6654397809       21.0680993127
  C         8.8279915309        3.9659378979       20.3380136044
  S         9.1479357482        6.6077777406       20.4181482588
  H         1.5837414525        7.1556841252       26.2608174990
  H         2.9761725923        7.1303154205       27.1377582422
  C         1.9550118248        5.3316110358       27.0605274574
  N         6.2232768677       -0.6910792426       28.6824212668
  C         5.4687294157       -0.2149067548       30.8475643485
  C         5.0249473004        2.0258210805       31.7096123107
  H         5.0145694712        3.5435435686       30.1158911620
  C         7.4620305408        1.8800291520       20.2282693698
  C         9.7681581556        1.7840227140       21.2686882639
  C         9.3772716109        4.3322324010       19.0827302139
  C         9.5030137198        5.6825185656       18.9171299069
  H         1.2125265601        4.8453956526       26.4346736850
  H         2.7271620729        4.6047702309       27.0604966494
  C         1.5356105846        5.6687427321       28.4657220684
  S         6.1192603527       -2.1446106482       29.3953805757
  N         5.5901546564       -1.5759470769       30.8447183931
  C         5.0238652065        0.5890625870       31.9270364793
  H         4.7298200527        2.6574618718       32.4717380708
  H         7.1956158146        0.9670879129       20.7528146844
  H         7.9819505431        1.5243552507       19.2782018240
  C         6.1108986070        2.6448262322       19.9709480408
  H         9.9907449879        1.1275688623       20.4489759486
  H         9.5675926682        1.0841716623       22.0860896070
  C        11.0721863547        2.6061525703       21.5965532632
  H         9.3620697731        3.6324320723       18.2599898486
  C         9.8319748788        6.3780990787       17.6539532077
  H         0.7036488837        4.9117760802       28.6397031883
  H         1.0104021510        6.6038366681       28.5081528034
  C         2.5826730297        5.5432616425       29.5479178775
  C         4.6960117776       -0.0139406357       33.2430767869
  H         6.1064722165        3.6556906061       20.0558618170
  H         5.3506949184        2.3689520945       20.7409259505
  C         5.7113596588        2.3045015557       18.5801064132
  H        10.8213233805        3.2885668494       22.4333916454
  H        11.2789946581        3.2100283049       20.7522351567
  C        12.1867707347        1.6693891837       21.8474418561
  C         9.7915580081        7.8245543355       17.5364792160
  C        10.0494058182        5.5814556246       16.4447572671
  H         3.2403580225        4.6989783654       29.4220229699
  H         3.1625426189        6.4411659524       29.4402180909
  C         1.9752839190        5.4806828196       30.9558666174
  H         4.7674942439       -1.1083187802       33.1675424010
  C         4.4848950284        0.3966707072       34.5032585910
  H         5.7350623464        1.2142365368       18.5432304941
  H         6.4091149832        2.6169068785       17.8208020695
  C         4.2621643808        2.5869079379       18.1991077325
  H        11.9468000589        1.1106799387       22.7665011530
  H        12.1187915214        1.0101830365       21.0010768064
  C        13.5346451601        2.3112979748       21.8826738027
  N         9.4302699476        8.7060607704       18.5466864247
  C        10.1074389805        8.4305555068       16.3626624962
  C        10.3380721031        6.2589668722       15.2587834577
  H        10.1754768053        4.4924427457       16.3997118878
  H         1.4832883128        6.4231688067       31.1769428036
  H         1.3164359976        4.5973988039       31.1516973194
  H         2.7088845708        5.3120676390       31.6678925843
  S         4.2441071561        2.0830767613       35.0501408666
  C         4.4628496196       -0.5904062297       35.6249985931
  H         3.6441528818        2.7746377818       19.0433131212
  H         4.3754398574        3.4333425702       17.5091049332
  C         3.6037815282        1.2844685337       17.7660830794
  H        13.5113659165        3.4333692281       21.9875645222
  H        14.0761074014        2.1475605063       20.9303169215
  C        14.4567845305        1.7995894823       22.9955566462
  S         9.5808665196       10.1808831383       17.9414784328
  N        10.1326083518        9.8134102764       16.4212514548
  C        10.3979950590        7.7113910386       15.1908568530
  H        10.6115372060        5.6613694502       14.3558037761
  C         4.0157581877        1.3684798603       36.7386516800
  N         4.2079956449        0.0551588007       36.8300362075
  O         4.6959773848       -1.7743933374       35.3976314351
  H         4.3094430636        0.7366453429       17.1829558479
  H         2.7952070969        1.4418412480       17.0656833047
  C         2.9692374084        0.3947433771       18.9280089934
  H        13.8714645774        1.3782908450       23.8164736345
  H        14.9992682449        0.9720735023       22.4839624070
  C        15.5385717110        2.8196931139       23.4754259987
  C        10.7335507959        8.4301789176       13.9957805641
  S         3.2858354007        2.2110332171       38.0678331665
  C         4.1637919671       -0.7965372900       38.0570085571
  H         3.6303168193        0.4695720294       19.7984562174
  H         1.9971416566        0.7602621848       19.2972154255
  C         2.7567263648       -1.0619425923       18.4362565695
  H        16.0033007168        2.5034352505       24.4110691980
  H        15.0575528842        3.7428650731       23.7239949359
  C        16.6800571235        2.8766205992       22.5082352963
  H        10.5463225079        9.4887496540       14.0398456550
  C        11.2903661104        8.0974934009       12.7711268173
  H         3.4215501592       -0.5393689833       38.7356048899
  H         4.1272740027       -1.8674095489       37.7972275823
  C         5.5080359407       -0.6693801126       38.7964750157
  H         2.7395977755       -1.6093832750       19.3567060417
  H         3.6380984512       -1.2553757437       17.7699826178
  C         1.5009789181       -1.3632658932       17.6738985289
  H        16.2893717944        2.7712415963       21.5260809979
  H        17.1870631303        3.8212779581       22.4193552216
  C        17.7107252088        1.7871099018       22.6657430417
  S        11.8912435267        6.6230312835       12.3212438445
  C        11.3467531642        9.1243621386       11.6333798578
  H         6.0260210308        0.1680106132       38.5824286650
  H         5.5436420441       -0.8254290747       39.9101318667
  H         6.1763533439       -1.3911768610       38.3336113823
  H         0.5798654123       -1.0292828964       18.1526043610
  H         1.4352348375       -2.4311194421       17.6775162924
  H         1.5613666491       -1.1544924503       16.6844952528
  H        17.8275131272        1.6434708597       23.6653050436
  H        18.6066299100        1.9633402764       22.1029674997
  H        17.2608299419        0.8294501519       22.3414553452
  C        12.0475379643        7.2829430335       10.6234600224
  N        11.8222917215        8.6469436131       10.4718773599
  O        11.0988468021       10.3179865301       11.7186437139
  S        12.6645331328        6.4276441598        9.1806718900
  C        11.9811955614        9.4637458701        9.2416680721
  H        12.0041410338       10.5771902266        9.4874046597
  H        12.9997655222        9.2504203394        8.8358597280
  C        10.7986329814        9.2361473222        8.2242990268
  H        10.8735356071        8.3349507490        7.6351980991
  H         9.8115850984        9.1596015142        8.7090295645
  H        10.6741275722       10.0533303757        7.5158394559
  H         4.5137286362        1.4096679194       12.5522436077
  C         3.9341180326        2.3366724660       12.5415118607
  H         4.6907306433        3.1224457191       12.4156581491
  C         3.0105486396        2.2750732808       11.3327601411
  C         3.2398841116        2.4103540724       13.9470663665
  C         3.6252447255        2.3906631778        9.9848623948
  H         2.2568913618        3.0710255510       11.4573116415
  H         2.5109331236        1.3245169381       11.3427642554
  H         2.8504779271        1.4947324644       14.3770929078
  H         2.3586559592        3.0588300434       13.8836471698
  H         3.9453600707        2.8016878596       14.6593067709
  C         4.5044473263        1.2469773307        9.6319097293
  H         2.8886674706        2.5779010629        9.2376805149
  H         4.1652681544        3.3343179708       10.0397699011
  C         5.4879147500        1.4776287755        8.3906896074
  H         3.8888205816        0.3533645172        9.3906974543
  H         5.0351465023        0.9316077668       10.5364922961
  C         6.6674350118        2.4006375653        8.7192083814
  H         5.0425458517        2.0183301800        7.5593788013
  H         5.9042524835        0.5605881462        7.9495642945
  C         7.9309081293        1.7237960906        9.3888623886
  H         6.9990305767        2.9518779340        7.8218636585
  H         6.3313676576        3.2375501639        9.3099833556
  C         9.0695652914        2.7790214020        9.6180039721
  H         8.3395379483        0.9517332788        8.7258298851
  H         7.6933441595        1.2200955533       10.3392062254
  C         8.5971787792        4.0560811141       10.1961632458
  C         9.5894548413        3.4161933640        8.3306691418
  C        10.1549251072        2.1801794160       10.4651042148
  C         8.8396105646        5.1660649504        9.3629237492
  C         7.9011756802        4.4120057936       11.3755894950
  C         9.4582084419        4.7558159718        8.1979607123
  C        10.1403417726        2.7835221922        7.2020618210
  H         9.6517465713        1.8251303494       11.4366906620
  H        10.3436946060        1.2531231085        9.9162208928
  C        11.4796537576        3.0190294331       10.5253305776
  S         8.2309086650        6.6400869360       10.0403818278
  C         7.8163165889        5.7739710517       11.4455746869
  H         7.7437274216        3.7331232865       12.1672794832
  C         9.9033051537        5.3870986986        7.0285794269
  H        10.0912395795        1.7644998720        7.1833657284
  C        10.4589652696        3.3753109890        6.0021293773
  H        11.1908510660        4.0134798740       10.6739550870
  H        12.0203900580        2.8684716131        9.6399285790
  C        12.4015260904        2.7329996239       11.6489463681
  C         7.4016371879        6.4014293139       12.6950755318
  C        10.4497190170        4.7205117998        5.9042773102
  H         9.9104151405        6.4444422239        6.9651999197
  C        10.9173012793        2.9357344510        4.7889236747
  H        13.2177531043        3.4924350628       11.7101539450
  H        12.9326391786        1.7752361546       11.4588540056
  C        11.7657331487        2.6841649583       13.0299168403
  C         7.5905859597        7.7943329054       12.9463792108
  C         6.9181706880        5.5879104229       13.8474836137
  C        10.9142822435        5.3573879856        4.6738354457
  C        11.2154072560        3.9883588328        3.9857446560
  S        11.1908292131        1.4015001641        4.0043453695
  H        11.3952001845        3.6921870750       13.1857724355
  H        10.9230996858        1.9856260544       13.1465148836
  C        12.8011104048        2.4735765098       14.2270275363
  N         7.9940722401        8.7958157480       12.1148834689
  C         7.2899965677        8.3454229384       14.1869642059
  C         6.7197513079        6.1252351453       15.1170056355
  H         6.6985295946        4.5303939106       13.7000432537
  C        12.2164285569        6.1776301990        4.9439337395
  C         9.8274982322        6.2144689907        4.0383311794
  C        11.6433296608        3.6170631806        2.6660379047
  C        11.6695496728        2.2186332218        2.5378990990
  H        13.5668697906        3.2051177716       14.2268199823
  H        13.1222941178        1.4789289349       14.2343075983
  C        12.0908057592        2.5328601345       15.5076478924
  S         8.0242282572       10.1660690417       12.8939044204
  N         7.5243584785        9.6747594677       14.2787790859
  C         6.7942893513        7.5992252733       15.2955564009
  H         6.2811327473        5.5054381606       15.8977987086
  H        12.0266040953        7.1592845539        5.4437153304
  H        12.5984952220        6.5481603275        4.0386831756
  C        13.3643155056        5.3939397732        5.5866127348
  H         9.6001819161        7.0569509205        4.6543619093
  H        10.2290074118        6.6859160790        3.0844185268
  C         8.4959316180        5.4112855618        3.7738226764
  H        11.7292537263        4.2979813875        1.8527238611
  C        12.1041011344        1.5140327895        1.2973412582
  H        11.7996305982        3.5780758793       15.5823124152
  H        11.1378205627        1.9831173001       15.4898716103
  C        12.9139927298        2.2242532907       16.7255977487
  C         6.4420327458        8.2641534382       16.4657307214
  H        13.0587592655        4.9975549803        6.5260583529
  H        13.5449885145        4.6188687315        4.8574195926
  C        14.6381433527        6.3095300393        5.8462743657
  H         8.2578667661        4.8840528032        4.6559529181
  H         8.6945930451        4.5842592138        3.0897928039
  C         7.4273958111        6.4698218743        3.4214824537
  C        11.8981762344        0.1303014727        1.0320862903
  C        12.6250376483        2.3080616284        0.1599562847
  H        13.6095093404        3.0016689184       16.9686981924
  H        13.5367392691        1.2422427753       16.6685170116
  C        11.9336802435        1.9769060963       17.8993722020
  H         6.3189829093        9.3345530193       16.2986095900
  C         6.2858998727        7.8705875100       17.7811547056
  H        14.2856202982        7.2235944477        6.4183648693
  H        15.1054161339        6.6310030464        4.9737478382
  C        15.6549200736        5.4779814346        6.7360186257
  H         7.0740119105        6.9033226648        4.3680723686
  H         7.9175259476        7.1818063578        2.7848758979
  C         6.3165704382        5.8716514776        2.4851619682
  N        11.5751066600       -0.8417793147        1.9937845252
  C        12.2930483274       -0.4708167804       -0.1641708338
  C        12.7549023251        1.7742420848       -1.1339273051
  H        12.8844652539        3.2752884676        0.3947535557
  H        10.9379198081        1.6509811773       17.6047620162
  H        11.8363636643        2.9029401534       18.4637137564
  H        12.4942440014        1.4226429561       18.6730100259
  S         6.1719740277        6.2387498089       18.2752156294
  C         6.2493628700        8.9360515154       18.7473955009
  H        15.5657378479        5.6721579013        7.8183404220
  H        15.1896377097        4.4527986670        6.8726472665
  C        17.1129126639        5.4162115092        6.2129462964
  H         6.2002966135        4.7836835459        2.7346959814
  H         6.5713470204        5.8217688596        1.4562963036
  C         5.0081506461        6.6670139446        2.6785661180
  S        11.5577191196       -2.3618363357        1.3037147909
  N        12.1668071375       -1.9193680233       -0.1178128848
  C        12.6697866585        0.3033194242       -1.3132587139
  H        13.1788223277        2.4003806964       -1.8830925610
  C         5.9826557302        7.0102522753       19.8097516444
  N         6.0644006438        8.3320669653       19.8903967499
  O         6.3952370755       10.1484920256       18.5357519573
  H        17.1197112328        4.9627591630        5.1649684803
  H        17.4340278367        6.4101202465        5.9115944556
  C        18.1796716075        4.7919043527        7.2005929184
  H         4.1944224188        6.2170147444        2.1331555249
  H         4.7129858757        6.7056833698        3.7005392249
  C         5.1560325451        8.1036033327        2.1297077451
  C        12.9079206676       -0.4078900126       -2.5102443595
  S         5.3189281305        6.1354973552       21.2334502296
  C         5.9425011663        8.9701026391       21.1877464624
  H        17.6748151956        4.4401373357        8.0798867733
  H        18.6849162870        3.9721057675        6.6076721079
  C        19.1476732206        5.9205241301        7.6973596182
  H         6.2275394415        8.3041984415        1.8369967403
  H         4.9790504980        8.8016035193        2.9680060948
  C         4.1240398942        8.4086380853        1.0046418654
  H        12.8873137521       -1.4615410890       -2.3187408484
  C        13.3612819973       -0.0753233862       -3.7992623251
  H         5.0874786088        8.6463617495       21.8400729070
  H         5.7153997397        9.9827512291       20.9679398461
  C         7.2934425494        9.0865654630       22.0190309315
  H        19.7614688467        5.5710361474        8.5419191844
  H        18.5989876215        6.7541451008        7.9986198323
  C        20.0495332829        6.2718193325        6.5200636892
  H         4.3408625756        7.8314295906        0.1199168852
  H         3.0633493533        8.2854149952        1.3516291932
  C         4.3364417650        9.8600363826        0.5873491258
  S        14.0150828257        1.4542866811       -4.3014346962
  C        13.5142310368       -1.1587502397       -4.7684221796
  H         7.5070227696       10.0131689133       22.5482545783
  H         8.0479281798        8.9401002641       21.1959216577
  H         7.5823621568        8.2403749628       22.7360047001
  H        20.5301929953        5.3469430886        6.1627580261
  H        19.6098886494        6.8059464965        5.6551881321
  H        20.8718029582        6.8293002937        6.8772827915
  H         3.9835992573       10.6046503378        1.3610339352
  H         5.3302009292       10.1940465542        0.3628952959
  H         3.6002005963       10.0136299900       -0.2377701695
  C        14.4268035142        0.6325289345       -5.8094030885
  N        14.0725071365       -0.6899794463       -5.8502964856
  O        13.0565443828       -2.2820550287       -4.6300932750
  S        15.2465164358        1.4087288294       -7.1518389048
  C        14.1010432391       -1.6594621484       -7.0384138402
  H        13.9188700245       -2.7183560836       -6.8797107450
  H        15.0539765775       -1.5769872952       -7.4524376839
  C        13.0773031861       -1.2539342270       -8.0944253912
  H        12.0615683191       -0.9369320184       -7.7784634668
  H        12.9229057865       -2.0275778225       -8.7654772292
  H        13.4158681643       -0.3531363974       -8.6327420895
