352
 i =    25600, time =    12800.000, E =        97.4968153902
  H        10.6463018966        4.9389312403       31.2577521459
  C        10.5901320089        5.7914660908       31.8556199330
  H         9.4606609350        5.7435530742       31.9928996173
  C        11.1541839148        6.8679158076       30.9838170859
  C        11.3840408319        5.6569528443       33.2135506441
  C        11.5884702666        6.4130607829       29.5498938573
  H        10.3614175389        7.6432631450       30.9984375228
  H        12.0680404505        7.2352386275       31.3771779880
  H        11.0687040064        4.6866437235       33.8031044014
  H        12.4231502219        5.6362642885       32.8558025980
  H        11.1252619821        6.3813470310       34.0426619176
  C        10.3253074306        6.3147420440       28.4893632733
  H        12.2382248016        5.5324912440       29.6140812118
  H        12.2035993362        7.2290832359       29.1793393538
  C        10.7925046010        5.9218481956       27.0707936808
  H         9.7163133234        5.4683144461       28.8151853834
  H         9.7975016887        7.2303846612       28.5186003439
  C         9.7470150688        5.1245066220       26.3118529520
  H        11.6049763181        5.1185514989       27.1144514736
  H        11.1622058211        6.7633959860       26.4942108003
  C         8.4444100265        5.9927562915       26.1368722391
  H        10.1751256370        4.6699004280       25.3781835218
  H         9.5074577235        4.4076012711       27.0604745925
  C         7.2681432196        5.2467570843       25.5640885414
  H         8.2442610881        6.5348295310       27.0329646304
  H         8.8313820991        6.8005793677       25.4346560448
  C         6.9138655699        3.8482960607       26.2061597433
  C         7.7754151566        4.5372203561       24.3014267054
  C         5.9882680463        6.0635834935       25.4962211795
  C         7.1826901288        2.7959233590       25.3726944224
  C         6.4845900283        3.4782569605       27.4689704861
  C         7.7483881128        3.1517390137       24.1909615780
  C         8.3162132007        5.1242867463       23.0994023673
  H         6.0816042783        6.9276275825       24.8070297831
  H         5.7860745660        6.6005506923       26.4259401552
  C         4.8544295294        5.2664503025       24.9442646284
  S         6.8412644240        1.3328727911       26.1009152736
  C         6.3880876891        2.1203364138       27.5780414384
  H         6.1211240601        4.1676426588       28.1485146418
  C         8.1267251124        2.4967933552       23.0494309505
  H         8.1972960230        6.1834092571       22.9948175947
  C         8.6969365283        4.4338459498       21.9865874446
  H         5.0641714806        4.9054706944       23.9300242585
  H         4.6296813798        4.5491499328       25.6912276384
  C         3.5278981144        5.9943271904       24.6866235547
  C         5.8962922088        1.4425632407       28.7612483298
  C         8.6753300982        3.0934715047       21.9458727348
  H         7.9884277689        1.4517747806       22.9321097290
  C         9.0818547934        4.7861251590       20.7430887688
  H         2.8960405569        5.3162116463       24.0234567213
  H         3.6302212443        6.9373083826       24.2238017899
  C         2.6821096252        6.1806253559       25.9204578557
  C         5.8707607084        0.0644423596       29.0363476914
  C         5.5726581401        2.2733098554       30.0035887216
  C         9.0422788033        2.3434791850       20.6961052093
  C         9.2706753249        3.6690703589       19.9418423136
  S         9.3199872704        6.2907543374       19.9457562061
  H         1.8775464406        6.8854332606       25.6666796909
  H         3.2718113863        6.7397290739       26.6989642700
  C         1.9873994827        4.9411443043       26.3807832323
  N         6.0265056699       -0.8723204052       28.0626890164
  C         5.7560014389       -0.4942914690       30.2295068784
  C         5.2900311378        1.6733522061       31.2016469284
  H         5.6691641009        3.3683708450       30.0906242525
  C         7.9397396466        1.4558209164       20.0999223334
  C        10.3679116109        1.6118165490       20.8466446900
  C         9.6363069535        4.0496153732       18.6358242226
  C         9.6289599842        5.4162504822       18.5138648709
  H         1.2816417926        4.6248506162       25.6015955170
  H         2.7901415988        4.1855920800       26.5462379384
  C         1.1552661837        5.1111609550       27.6495707579
  S         6.1075688772       -2.3432268114       28.7158988007
  N         5.8650661906       -1.8523214142       30.2299156282
  C         5.4139633305        0.2043211191       31.4336979103
  H         5.0413605808        2.3652010617       31.9885242721
  H         7.5230769968        0.6917004727       20.7313055994
  H         8.4336188981        0.8680442387       19.3515482677
  C         6.7405403702        2.2241637080       19.4996471449
  H        10.5809000129        1.0844394293       19.9036080645
  H        10.3470281837        0.8482634170       21.5755429519
  C        11.5659503491        2.5152934337       21.0834716387
  H         9.7861776890        3.2063346748       17.9397368534
  C         9.9246896159        6.0594514053       17.1927737397
  H         0.4348795559        4.3407401632       27.7996284444
  H         0.6146616198        6.0071119143       27.5238076255
  C         2.1033510924        5.3936393017       28.8137252691
  C         5.2652781348       -0.4489105924       32.6937805103
  H         7.1337614308        2.6692776620       18.5187658391
  H         6.4035940191        3.0372848060       20.1871643015
  C         5.6268050197        1.2469945175       19.1315282939
  H        11.4582919684        2.9944005510       22.0727942728
  H        11.6353087377        3.2913501012       20.3957063587
  C        12.9146437533        1.7395897926       20.8951265585
  C        10.0993389632        7.4551308607       16.9327612522
  C        10.2133925761        5.2750354549       15.9740620703
  H         2.9258140087        4.7332129910       28.8677739892
  H         2.7528276987        6.2621104006       28.6634346038
  C         1.4076852567        5.5716445488       30.1724750757
  H         5.5921274406       -1.4235183971       32.8116009032
  C         4.8549381588        0.0114199435       33.9340329023
  H         5.3101545665        0.6912750459       20.0502889977
  H         6.0343690289        0.4982380497       18.5006206714
  C         4.4034147417        1.9146231952       18.5520682806
  H        12.9000786134        0.9930929631       21.6335973380
  H        12.9377462418        1.2578895068       19.9241647323
  C        14.0484564344        2.7601389444       21.0970002979
  N         9.9127013601        8.3760492852       17.9552087224
  C        10.4289476204        7.9898887079       15.7144519485
  C        10.5672788557        5.8299302849       14.7514411348
  H        10.1479080412        4.2254950250       16.0028595085
  H         1.2440336351        4.5703939119       30.6141891716
  H         2.0399265621        5.9338028593       30.9113523928
  H         0.5576220068        6.1950767861       30.1439609592
  S         4.4185830635        1.5422091103       34.4398489894
  C         4.7639806198       -1.0746523735       35.0200455060
  H         4.3224977126        2.8087687335       19.1681054632
  H         4.5728619109        2.3417707948       17.6064051322
  C         3.0941477314        1.1200615103       18.5564058711
  H        13.8506341299        3.4867870835       21.7899462094
  H        14.4115432036        3.1985507560       20.2105342042
  C        15.2133879287        2.0561430632       21.8250504687
  S         9.9080196264        9.8562606592       17.2305682946
  N        10.4646345255        9.3771299916       15.7378121777
  C        10.6719989303        7.2737810052       14.5545116792
  H        10.6060060540        5.2064199449       13.8734684029
  C         4.1980601053        0.8463367248       36.0290145233
  N         4.3706144515       -0.4866931440       36.1703416081
  O         5.1078635728       -2.2814270652       34.9080707130
  H         2.2477531263        1.7894382405       18.2781629936
  H         2.8216523316        0.8937553091       19.5868491533
  C         2.9970278164       -0.1001240012       17.6091687820
  H        14.9017682237        1.2040182235       22.4139382222
  H        15.9612687098        1.7056505027       21.1341091552
  C        16.0533495582        3.0782408510       22.6972612772
  C        10.9406940354        8.0074020083       13.3464034552
  S         4.0422238488        1.6719125393       37.5544145890
  C         4.1956922684       -1.3332697477       37.3793259979
  H         2.4914546381        0.1753029763       16.6756866711
  H         3.9958047160       -0.3506639558       17.4009423358
  C         2.0694489880       -1.2266952172       18.2164945773
  H        15.4741643279        3.4448323182       23.5379367354
  H        16.2458688575        3.9861032443       22.1080810670
  C        17.3989445455        2.5554620321       23.1377744616
  H        10.7925939000        9.0801118097       13.4130376007
  C        11.3591393127        7.6030420403       12.0739910679
  H         3.5359876601       -0.8664680540       38.1103108954
  H         3.8848697343       -2.3304696508       37.1015389366
  C         5.6028380204       -1.2722262674       38.1225745237
  H         1.0752219096       -0.8605834773       18.4557773907
  H         2.5367608169       -1.5760481132       19.0948184217
  C         1.8467050659       -2.4318180278       17.2079805955
  H        17.6074137579        2.9698586121       24.0936643810
  H        17.2994359258        1.4913112132       23.2454719209
  C        18.5325421064        2.7449138890       22.1232985284
  S        11.9124784691        5.9877453672       11.6428983125
  C        11.3717956934        8.6019028697       11.0603496338
  H         5.9324764878       -2.2493362613       38.3929294597
  H         6.3228512725       -0.7572860849       37.4277203999
  H         5.6717150564       -0.7628426631       39.1280948002
  H         1.1450299507       -3.1279181297       17.6439685322
  H         2.7665827895       -3.0448911449       17.0271539566
  H         1.5899498770       -2.1488704213       16.1868466306
  H        18.0488791662        3.0070393011       21.1871640977
  H        19.2984728749        2.0356293579       21.9620203073
  H        19.0776645703        3.5819888494       22.4477850327
  C        12.2860356824        6.8140774065       10.1365074616
  N        11.9826809054        8.0996493994        9.9908031314
  O        10.8932150067        9.7607260337       11.1898356890
  S        13.0466171291        6.0332168122        8.7491075367
  C        12.1782811405        8.7803654551        8.7405882642
  H        12.1558635456        9.8633717054        8.7433159877
  H        13.2014289384        8.6359339820        8.3597067894
  C        11.0649004775        8.4819935956        7.6836490504
  H        11.2785846968        8.8862649599        6.7558005629
  H        10.9564468526        7.3927413936        7.5675810863
  H        10.1656587526        8.8681263078        8.1385671061
  H         4.4243070430        1.1710243715       12.5133721667
  C         3.8150048912        2.0939090221       12.4568049741
  H         4.6163215017        2.8588419304       12.4201072267
  C         2.7961452527        2.2102305036       11.2322851483
  C         2.9668914404        2.2323154197       13.7508628125
  C         3.5360135956        2.3471932226        9.8845998760
  H         2.1535742759        3.0786788866       11.3621658522
  H         2.2302280722        1.3346748893       11.2400526895
  H         2.5321318682        1.2282289197       13.9045194320
  H         2.2922962473        3.0690471279       13.6661026271
  H         3.5177666379        2.4122498459       14.6616955195
  C         4.4640041605        1.1878629484        9.5226185892
  H         2.8927739757        2.6135628876        8.9707855837
  H         4.0723543955        3.2994076803        9.9493627491
  C         5.2931220499        1.4909677880        8.2368629676
  H         3.9362407941        0.2451186984        9.4392678740
  H         5.0886973020        0.9607365055       10.4054844051
  C         6.5967336699        2.2920291714        8.4432187967
  H         4.7010243269        2.1513039529        7.6003411509
  H         5.5255777657        0.5751487521        7.7312316460
  C         7.8220868154        1.4825836505        8.9443529014
  H         6.8111146484        2.9079169410        7.5542567424
  H         6.3199806616        2.9559471042        9.1809238056
  C         9.0190425509        2.4636140824        9.2004547702
  H         8.0530909734        0.6980861000        8.2982261963
  H         7.4973543835        1.0505194444        9.9110683331
  C         8.5187601211        3.7385432924        9.8877477393
  C         9.3640649506        3.1805820613        7.9254249943
  C        10.2714646138        1.7832001268        9.8385717750
  C         8.6981393215        4.8926277863        9.1115421108
  C         8.0945090490        4.1309924426       11.1711412742
  C         9.2121922286        4.5320899453        7.8754085155
  C         9.9002101703        2.5163550382        6.8339221810
  H         9.9187164273        1.3767827628       10.8106375663
  H        10.5960604714        1.0291855008        9.1717067854
  C        11.3134855263        2.8506989371       10.2422789660
  S         8.3311349447        6.4120344974        9.8219968297
  C         7.9046720079        5.5164980725       11.2636215658
  H         8.0366198758        3.3950655970       11.9893328867
  C         9.5550654585        5.1351827073        6.7003788208
  H        10.1474404942        1.4364769149        6.8657392513
  C        10.2667976695        3.1396072908        5.6903950274
  H        10.9553765044        3.6488501757       10.8719015988
  H        11.7378919286        3.3031223129        9.3267571989
  C        12.5038724631        2.2281390816       10.9514385266
  C         7.4146599964        6.2288723438       12.5360218842
  C        10.0612884843        4.5116540787        5.5673636565
  H         9.3884595905        6.1858505375        6.6004766438
  C        10.7187832782        2.7765722341        4.4580039920
  H        13.3150598708        2.8888450563       10.8731397029
  H        12.8865309362        1.3361794295       10.4990478013
  C        12.2566153743        1.8209737635       12.4136872378
  C         7.4112125965        7.5899845550       12.6876306874
  C         7.1661696048        5.3964877291       13.7613389773
  C        10.4423017853        5.2341341149        4.3448174221
  C        10.7893914404        3.8886225701        3.6635538552
  S        11.2994938175        1.3181853651        3.7878504926
  H        11.6982924174        2.6452226356       12.7649501692
  H        11.7122243210        0.8208034421       12.5321816893
  C        13.4704398211        1.7441042040       13.1396489454
  N         7.7573209107        8.4934860294       11.6897714497
  C         7.2839692901        8.2436170599       13.8916331512
  C         7.0528093083        5.9892190029       14.9982712322
  H         6.9567662331        4.3608117375       13.6750952256
  C        11.7679533231        6.0726172772        4.4565430714
  C         9.3284100155        6.0898450159        3.6623047881
  C        11.2498286473        3.5499408771        2.3627662904
  C        11.4265476419        2.1652789491        2.3003751946
  H        13.9356364205        2.7096148814       13.1528922168
  H        14.2199564276        1.1169879321       12.6732352920
  C        13.1739494182        1.2413857334       14.5664619322
  S         7.7221073521        9.9906695962       12.2519886205
  N         7.4674598049        9.6500597308       13.7881980777
  C         7.1052630929        7.4924471077       15.1321798527
  H         6.8108571698        5.3741006980       15.8330078729
  H        11.4524733303        6.8784299950        5.1267951323
  H        12.0817505195        6.4352945696        3.4970281521
  C        13.0049074888        5.3361569591        4.9377724568
  H         9.0984969382        6.9434560611        4.2771112148
  H         9.5946289285        6.5362623574        2.7293308836
  C         8.0860683254        5.2921615170        3.4628551058
  H        11.2001289310        4.3525022998        1.5539104663
  C        11.8365704579        1.4325189595        0.9923711016
  H        12.6855216526        0.3330552921       14.4464313052
  H        14.1909148672        1.1700744319       15.0891776901
  C        12.3717142091        2.2167291028       15.5088130986
  C         6.8692326742        8.1386893276       16.3391365143
  H        12.8689861697        4.9906815556        5.9511817858
  H        13.2083751723        4.5342254717        4.2100147059
  C        14.3006523432        6.1323272512        5.0986573110
  H         7.7664336526        4.9493462102        4.4596058225
  H         8.3376038749        4.3262488183        3.0220301345
  C         7.0740686092        5.9917433803        2.6281155126
  C        11.8656105458       -0.0019611449        0.7829799471
  C        12.0483799993        2.3148588635       -0.2119226789
  H        11.3534025567        1.8414824336       15.5424894493
  H        12.2331636390        3.2332328969       15.0981348661
  C        13.0955733956        2.3766239600       16.8432315650
  H         6.7417756905        9.1951097115       16.2273704551
  C         6.6063086703        7.7235222350       17.6174605100
  H        14.2076884194        7.0576510837        5.7633889596
  H        14.4171891431        6.4466541852        4.0779552024
  C        15.5192671157        5.2967848602        5.6517178730
  H         6.9062733565        6.9930427857        3.0846224719
  H         7.4339251325        6.1593613874        1.6570630872
  C         5.7188760905        5.2640059900        2.6924408324
  N        11.5757702151       -0.9885170760        1.7689588663
  C        12.2339089555       -0.5805290263       -0.4185741172
  C        12.3347443916        1.6391131672       -1.4170768786
  H        11.9782548877        3.3660419311       -0.2241745186
  H        13.9222992081        3.0563373016       16.7185373664
  H        13.5234536023        1.3945187749       17.2380712993
  H        12.4993422090        2.9180970931       17.6167262156
  S         6.4572188811        6.0453122717       18.2212487962
  C         6.4735013982        8.6838536361       18.6934084437
  H        15.0203415681        4.5237278778        6.2050102695
  H        16.0363632825        4.7937460333        4.8528469934
  C        16.6491150339        6.0305947203        6.3703551167
  H         5.4882240040        5.1582249426        3.6971836892
  H         5.9806473380        4.2972482583        2.1814849933
  C         4.6716518882        6.0836676253        1.9133941912
  S        11.8866689806       -2.4164385804        1.1712277842
  N        12.2522165124       -1.9383180651       -0.3314362005
  C        12.5302705927        0.1424797724       -1.5707848074
  H        12.4339259191        2.1141322015       -2.3754042578
  C         6.0667770266        6.7319100020       19.7725471995
  N         6.0908726706        8.0521620131       19.7733999273
  O         6.4401489864        9.8944167023       18.5192977663
  H        17.1676888649        6.5349822521        5.5761199629
  H        16.3274365093        6.8600150996        6.9769208438
  C        17.5951340736        5.1534539725        7.1926494679
  H         5.0387133333        6.2085021476        0.8762802895
  H         3.8092897765        5.4313196171        1.7813331901
  C         4.0490375467        7.4114106499        2.5214273332
  C        12.8800290246       -0.5771184363       -2.7301541296
  S         5.5147706795        5.8404272507       21.1599519637
  C         5.8144458093        8.8428811557       20.9593529190
  H        17.0248734968        5.0972524129        8.0707942219
  H        17.6316248132        4.1795643596        6.7504535425
  C        18.9698637956        5.8107911474        7.3665469936
  H         4.6943083566        7.7979477992        3.3385744685
  H         3.0512764063        7.2639444467        2.9611909641
  C         3.8577272172        8.4508526578        1.4647685578
  H        12.7596501878       -1.6236494985       -2.6710359728
  C        13.4393040204       -0.2736612209       -3.9329163800
  H         5.1338098794        8.3519470336       21.6471960538
  H         5.1370916592        9.7222328567       20.8990402106
  C         7.0875781610        9.0935800967       21.7626214747
  H        19.3971561490        5.3064204870        8.2525216754
  H        18.9045951534        6.8355032885        7.6426928461
  C        19.7372324257        5.7002856359        6.0530412101
  H         4.6011942891        8.2752943940        0.7391238629
  H         2.9125933494        8.1866791366        0.9762726548
  C         3.9915714410        9.9530421783        1.9917725436
  S        14.0750036503        1.2471439943       -4.3350271448
  C        13.4867794887       -1.3236497620       -4.9777943455
  H         7.4462298623        8.1211153250       21.8984728064
  H         6.9221151937        9.6046583473       22.6951184893
  H         7.8219507454        9.6480444720       21.1380037632
  H        20.7886656939        5.3018354838        6.2031259748
  H        19.2368992811        5.1531768740        5.3080454014
  H        19.8169614486        6.7603282393        5.5741588950
  H         3.3228206719       10.1374899531        2.8010648509
  H         4.9960068643       10.2116017606        2.3250609935
  H         3.9282834791       10.6403818821        1.1310603550
  C        14.3743328828        0.5450702741       -5.9180563681
  N        14.0584289717       -0.7644212692       -6.0660345935
  O        13.0182012313       -2.4899134902       -4.8536307082
  S        15.0775643584        1.3544959177       -7.2819918547
  C        14.3093631202       -1.6150471218       -7.2252980709
  H        14.4051992195       -2.6508662867       -6.7890902159
  H        15.1650856853       -1.3077811049       -7.8368543844
  C        13.0663896421       -1.5434784277       -8.1537448106
  H        13.0964095015       -0.7999829315       -8.9118375789
  H        12.1505531800       -1.3962247574       -7.5868152798
  H        12.8066736288       -2.4891274356       -8.6934536565
