352
 i =    81400, time =    40700.000, E =        99.5054320626
  H        11.9717678690        6.7506528899       32.3418123589
  C        11.6984217265        5.7451917785       32.3232436534
  H        12.4955090071        5.1723608776       31.8341295081
  C        10.5013716559        5.5893057472       31.4428311227
  C        11.5633054328        5.0903647283       33.6711035308
  C        10.5493197129        6.3941308318       30.1836662501
  H        10.3831657705        4.5018415712       31.3557724023
  H         9.6387708290        5.9134938241       31.9817609157
  H        10.4980105399        4.9549532154       33.9989111582
  H        12.1057518849        4.1953735385       33.7811278316
  H        11.9784608328        5.7578226330       34.4633626540
  C        10.6395283202        5.3901196028       28.9491198901
  H        11.3741161086        7.0339323782       30.1683369209
  H         9.6439964149        6.9928917736       30.0379745934
  C        10.6236060761        6.0622516338       27.5525768125
  H        11.4733007564        4.6347517860       29.0288740819
  H         9.7712532960        4.8060035946       29.1156391759
  C         9.6886849516        5.3121534753       26.5564250729
  H        11.5823274340        5.8986077951       27.0504552319
  H        10.4558740551        7.1409920983       27.6227153276
  C         8.3682810218        5.9973718587       26.5477084529
  H        10.0142732582        5.4027689809       25.5419421404
  H         9.7464051193        4.3190442123       26.8281997848
  C         7.1858580302        5.2810426981       25.7427536037
  H         8.0724511392        6.0611544915       27.5819496310
  H         8.4234070713        6.9521139308       26.0647716072
  C         6.8581236870        3.9139911402       26.4124663788
  C         7.6314830598        4.5800504215       24.4738346064
  C         5.9674131883        6.1350719680       25.7688865990
  C         7.0628208671        2.8188290794       25.6048148235
  C         6.3167689644        3.5050121037       27.6708573091
  C         7.5756862174        3.2357999677       24.3693355303
  C         8.1507477434        5.2403621138       23.2905874811
  H         6.3207391976        7.0409399064       25.2443386130
  H         5.6609366114        6.4309120544       26.8006401009
  C         4.7349789066        5.4190877303       25.1415045954
  S         6.7747412708        1.2979563460       26.4518286967
  C         6.3234711919        2.1441781213       27.8594454645
  H         6.0189905986        4.2814054433       28.4179544345
  C         7.9964389330        2.6180149925       23.2209924581
  H         8.4019041484        6.2428131753       23.3759271775
  C         8.5260119943        4.6403392841       22.1786445510
  H         4.9590715943        5.0947317238       24.1462457256
  H         4.4462319486        4.5037254901       25.6236219524
  C         3.4257898229        6.2502990604       25.1959201344
  C         5.9259674647        1.3653376727       29.0421362800
  C         8.4202488448        3.2850756023       22.1150060877
  H         7.9362302210        1.5385518143       23.2047270027
  C         8.8994660921        4.9969079957       20.9001958907
  H         2.6318058907        5.8972834231       24.4959113787
  H         3.5902806141        7.2471279064       24.8447052629
  C         2.6777983970        6.3216174818       26.5983878231
  C         5.9687862426       -0.0324659199       29.3114351132
  C         5.5145341996        2.1593621389       30.2054388481
  C         8.8511053414        2.6271206605       20.8496780710
  C         9.1245776368        3.9477988643       20.1129803487
  S         9.1070083643        6.5001338078       20.0761888823
  H         1.8195977442        7.0087818482       26.5857654829
  H         3.3665075278        6.7870734367       27.3681980635
  C         2.1197768549        5.0487737122       27.0503416863
  N         6.2631309797       -1.0733317791       28.3896842556
  C         5.7425333129       -0.5523381498       30.5688569826
  C         5.2599242295        1.5985449183       31.4877600052
  H         5.3376270964        3.2323085153       30.1832617825
  C         7.8115071716        1.8408445303       20.0691960658
  C        10.1929238267        1.8414320458       21.1177753212
  C         9.5693065993        4.2681628580       18.8184836140
  C         9.6987857425        5.6546057999       18.6599785205
  H         1.4349661355        4.6951311133       26.2994860965
  H         2.8480432901        4.2452801895       27.3500770396
  C         1.2894631245        5.1136055370       28.4026993487
  S         6.1917296164       -2.5307746335       29.1418912352
  N         5.8918750172       -1.9807297083       30.6310926463
  C         5.4088225132        0.2047109358       31.7394918436
  H         4.8643030627        2.2469618541       32.2545749296
  H         7.4865468841        1.0093588018       20.7480201220
  H         8.2319461817        1.3680121039       19.2058219743
  C         6.6000584619        2.6271324815       19.5328094467
  H        10.5727855193        1.5966332634       20.1361802046
  H        10.0797863567        0.7784901603       21.4541953757
  C        11.3665952928        2.5249672234       21.7635073709
  H         9.6894587216        3.4424653040       18.1379637065
  C        10.1137258397        6.3336431136       17.3937460450
  H         0.6468965891        4.2285814060       28.3561153593
  H         0.6323906758        6.0278236076       28.3325532091
  C         2.0760095660        5.1911634760       29.7398249684
  C         5.2162127804       -0.3483536508       33.0119953832
  H         6.8254770804        3.6573791725       19.2614467870
  H         5.7990975837        2.5634212378       20.1805361290
  C         6.0062132957        1.8585418754       18.3664035561
  H        11.1851790147        3.0302191773       22.6414380886
  H        11.6352179284        3.3511229837       21.1330952199
  C        12.6799638293        1.6884186047       21.7922785048
  C        10.0747953935        7.7325375747       17.1935711486
  C        10.2590490785        5.5566307605       16.1810969964
  H         3.0072958980        4.6350808183       29.5743999607
  H         2.4965164085        6.1547831267       29.9189096706
  C         1.2250603609        4.7597099200       30.9440355287
  H         5.5466864390       -1.3419612378       32.9834879814
  C         4.7648373031        0.0488789685       34.2657010100
  H         5.9785737117        0.8374367694       18.6581931201
  H         6.6080190628        1.9049044496       17.4598347586
  C         4.5794737763        2.3387193899       18.0074131782
  H        12.6813283091        0.9268830979       22.6185597433
  H        12.8565309357        1.2575313784       20.8378478389
  C        13.8707800314        2.6326075215       21.9837991158
  N         9.6980362294        8.7347814683       18.0596091570
  C        10.3437381213        8.3113740417       15.9859737709
  C        10.6388928728        6.1726846559       14.9965514268
  H        10.0175025801        4.4535277532       16.1477824478
  H         0.4132647546        4.0928766854       30.6237673057
  H         1.8551226926        4.1800388840       31.5783536664
  H         0.8393444725        5.6078093870       31.4457706350
  S         4.3289804321        1.7048310904       34.8202575810
  C         4.6782057062       -1.0054400487       35.2673408888
  H         4.4305102109        3.4433630876       18.1647932885
  H         4.5831768933        2.0488759376       16.9007434683
  C         3.5422763535        1.4945551842       18.8925856800
  H        13.6563371445        3.7351348037       22.2670371508
  H        14.2815096702        2.6171356513       20.9849761361
  C        14.8225765325        2.0541729159       23.0389474549
  S         9.6795611201       10.1876933861       17.4589836368
  N        10.2420323829        9.7228854554       16.0093720881
  C        10.7987513107        7.6212716005       14.8259703172
  H        10.5417539824        5.5873802450       14.0858275178
  C         4.1715430200        0.8708661639       36.3799108519
  N         4.2597290475       -0.4491545021       36.4110621943
  O         4.8356418986       -2.1867499433       35.1196581188
  H         2.9758656817        2.2362340162       19.4561906142
  H         4.0336369065        0.7918781398       19.6316914383
  C         2.4005187221        0.7406425348       18.1418556396
  H        14.2021385134        1.9388595695       23.9335613787
  H        15.0321068356        1.0765292748       22.7693718125
  C        16.0355521346        2.8658769323       23.2155418440
  C        11.0365824024        8.3992126892       13.6258433150
  S         3.6140106095        1.7509640332       37.7596154625
  C         4.1137483825       -1.2506424162       37.6324597814
  H         1.5346538007        1.4193154365       18.1585320814
  H         2.6686345138        0.7388391910       17.0060894189
  C         2.0492287255       -0.5464416556       18.8087067618
  H        16.4230771886        2.6700399432       24.1845699312
  H        15.7801876250        3.9020771756       23.1994408375
  C        17.1905381245        2.6668379575       22.1295105185
  H        10.8084830431        9.4381633432       13.8398415283
  C        11.4360250022        8.0587156027       12.3250188189
  H         3.3571963670       -0.8705416351       38.2984636988
  H         3.8765294892       -2.2257393747       37.2727877821
  C         5.4912320864       -1.2199789555       38.3518295351
  H         0.9505779206       -0.5064384343       18.8858781627
  H         2.3537978977       -0.6239643989       19.8212398736
  C         2.5286361712       -1.7333360804       18.1576376981
  H        16.7527678535        2.7610007601       21.1092054486
  H        17.9606988206        3.4554369862       22.2600676951
  C        18.0184137794        1.3393504309       22.2131237212
  S        11.8400868451        6.4818576517       11.6882190923
  C        11.5658909954        9.1117320054       11.3485177153
  H         5.4214786007       -1.2865638244       39.4138901955
  H         6.0103583591       -2.1033333728       38.0563873760
  H         6.1339633358       -0.3823996410       37.9838325840
  H         2.3021216552       -1.7812197737       17.1079102763
  H         2.0029020273       -2.5189253589       18.6610102132
  H         3.6072722659       -1.7896804764       18.1919658341
  H        19.0536588536        1.3955365822       21.9445567702
  H        17.5194042230        0.6296088278       21.5804970614
  H        17.9706158967        0.9435546445       23.2308469022
  C        12.3018455542        7.2923965243       10.1715363016
  N        12.1075161296        8.6088739914       10.2143631681
  O        11.2479474564       10.2969759479       11.5948946097
  S        13.0731134118        6.5493690059        8.7583652631
  C        12.3061889385        9.4986120671        9.0916226719
  H        12.4242938290       10.4444324686        9.6551315107
  H        13.2584688992        9.2500478812        8.5297531213
  C        11.1031225289        9.5904745709        8.1568726905
  H        10.8173151293       10.6271329183        7.9901329474
  H        11.4100437990        9.2566279313        7.0906992097
  H        10.2731096407        9.0117734599        8.5385903204
  H         1.8614714143        0.9143614333       12.4288244316
  C         2.7269522410        1.5262168195       12.1750116049
  H         3.5264861433        0.8374146043       12.1510598304
  C         2.5598790156        2.1841871864       10.7732237497
  C         3.1466719072        2.4598131991       13.2417021543
  C         3.8253663791        2.5209455045        9.9899925265
  H         2.0564171854        3.1648435342       10.9611053021
  H         2.0261804369        1.5580912046       10.1495667706
  H         3.4585597188        2.1028573337       14.2278637739
  H         2.3160530904        3.0672672145       13.4840257587
  H         3.9243349564        3.0853650639       12.8280611474
  C         4.4363928061        1.1967360581        9.3952657154
  H         3.5831450995        3.2767117740        9.2176569660
  H         4.4673561034        3.1137239710       10.6154032579
  C         5.4599243203        1.4335272466        8.2680850822
  H         3.5754733947        0.5637109477        8.9392929972
  H         4.9431080148        0.5848490814       10.0878513923
  C         6.5928914866        2.4512056565        8.5454814340
  H         4.8229894986        1.8124216619        7.4620796889
  H         6.0259377503        0.5080860528        8.0180829621
  C         7.8335486119        1.7470793098        9.2164361094
  H         6.9094200038        2.9507718445        7.5897886137
  H         6.1757949337        3.2857391760        9.1076741145
  C         9.0578805051        2.6880688885        9.3522528330
  H         8.1271423726        0.7804991125        8.7077888078
  H         7.4308487579        1.4593812645       10.2385674308
  C         8.6240567187        3.9810063476       10.0456355694
  C         9.4476227606        3.5267052518        8.1506098225
  C        10.3493682305        2.1507929219       10.0497405472
  C         8.9252563399        5.1553732340        9.3683024202
  C         7.9606387535        4.2797372141       11.2453358733
  C         9.4415704371        4.8602625465        8.1550138331
  C         9.8961287778        2.9913956635        6.9460584433
  H         9.9589055788        1.3998676735       10.8629945618
  H        10.8813598877        1.5015255379        9.3561774594
  C        11.2392410068        3.1858472512       10.6217583900
  S         8.3578925650        6.6416515569       10.0423880447
  C         7.8995695151        5.6644834299       11.4330842870
  H         7.6522372849        3.4665790262       11.9146508645
  C         9.9028435260        5.5502413752        7.0817601424
  H         9.9613281563        1.9669233905        6.8839717995
  C        10.3325771494        3.6745620850        5.8435927940
  H        10.8127760613        3.8240236924       11.2681074733
  H        11.6416626713        3.8338659965        9.8019740825
  C        12.4634460018        2.6333535295       11.4200718065
  C         7.5163287937        6.3276313137       12.7006331349
  C        10.4317765222        5.0081221676        5.9036125684
  H         9.8502174868        6.6525028716        7.1065359641
  C        10.7666652019        3.3306587295        4.6035362943
  H        13.0344794569        3.5598721674       11.6339424552
  H        12.9391937422        1.9169049794       10.7386434042
  C        12.2377317934        1.8929791267       12.7709163296
  C         7.5473191326        7.7027068127       12.9772344926
  C         7.1366369813        5.5393378429       13.9246596699
  C        10.8496615208        5.7265371992        4.6500446662
  C        11.0528373022        4.4418249539        3.8422311278
  S        11.0810513508        1.8008811225        3.8029235116
  H        11.2292363902        1.3755550955       12.7334605472
  H        12.9826242088        1.1698100435       12.9868920700
  C        11.9915097923        2.8750904250       13.8934088500
  N         7.7863334201        8.6104915843       11.9824889782
  C         7.3961920880        8.2553358753       14.2559069415
  C         6.8774596736        6.0532261532       15.2067129082
  H         6.9669032424        4.5180765256       13.7729425583
  C        12.1893192188        6.4940189395        4.9261353084
  C         9.8702333611        6.7080819696        3.9083736039
  C        11.4922130316        4.1206859061        2.5505966395
  C        11.4620307958        2.7494611074        2.3204781602
  H        11.1536569319        3.4683685706       13.7447635821
  H        12.7556954308        3.6631691902       13.8293512799
  C        11.9440761310        2.1151750184       15.2747477658
  S         7.9026355493       10.0499569797       12.6911486439
  N         7.6205597399        9.7059943569       14.2272246594
  C         6.9910981920        7.5110723650       15.4054512100
  H         6.3454163624        5.3419970236       15.8739957310
  H        12.0734407021        7.2658702336        5.7016963402
  H        12.5544912779        7.0872421027        4.0415393255
  C        13.3188751024        5.5589278572        5.3330941950
  H         9.4484397786        7.3671599038        4.6935144042
  H        10.4464664762        7.1831273253        3.1314210605
  C         8.5468158254        6.0653600458        3.3885727349
  H        11.8846942508        4.8891238711        1.9012321540
  C        11.8771325127        2.0271729321        1.0471772513
  H        11.2393807734        2.6633389922       15.9395254327
  H        11.4302272142        1.1347889359       15.2077936664
  C        13.2959127390        2.0117837466       16.0663749242
  C         6.8162776523        8.2271694323       16.6793705484
  H        12.9992456141        4.8464210696        6.1393636623
  H        13.4827832289        4.8495002705        4.4380575943
  C        14.4997759010        6.3630010812        5.7286481487
  H         7.7188386663        6.4969220295        3.9526491636
  H         8.4423112553        4.9935069758        3.5936026915
  C         8.3664708157        6.4121316627        1.8824761724
  C        11.8662000937        0.6250111808        0.8195471441
  C        12.0495042648        2.8478566057       -0.1596554849
  H        14.1368418430        2.3906949750       15.5154965862
  H        13.6033799407        0.9720049958       16.2948953925
  C        13.1197666463        2.6808875158       17.4440621235
  H         7.0013581513        9.2700446274       16.5387099872
  C         6.5399986270        7.8612121228       17.9646815149
  H        14.2430398236        7.2849702254        6.2058583782
  H        14.8908847393        6.7987824576        4.7665571457
  C        15.4682267671        5.5361587013        6.5710171292
  H         8.3941065367        7.4667282455        1.5104893414
  H         9.2724198152        5.9998245470        1.4233424641
  C         7.1458787430        5.8056060279        1.2044440382
  N        11.6197532583       -0.3393160132        1.8243246138
  C        12.2992321382        0.0315600487       -0.3336225812
  C        12.2678582288        2.2138156005       -1.4098353821
  H        11.9637933019        3.9480551511       -0.1445425325
  H        12.5611788833        3.6048706218       17.4270855371
  H        14.0647041211        2.8150605526       17.9871791087
  H        12.6002516169        2.1293856710       18.1098901465
  S         6.3114575996        6.2426592065       18.5364886238
  C         6.3749615732        8.9688951176       18.9849555125
  H        15.5826143133        5.9259471501        7.5813981987
  H        15.2606041832        4.5488998260        6.6375176804
  C        16.8151719152        5.5140682709        5.8020549384
  H         7.0917237966        4.7238197708        1.3070879551
  H         7.2048971722        6.0874655482        0.1951566231
  C         5.8304938701        6.2091999471        1.7848829782
  S        11.7742156811       -1.8377305585        1.2388762417
  N        12.3493006318       -1.3968165170       -0.1950664774
  C        12.4983091956        0.7285842825       -1.4795307683
  H        12.2536516442        2.7746561570       -2.3284074905
  C         5.9995932452        6.9848807474       20.1065679510
  N         5.9270200047        8.3850080311       20.1300383186
  O         6.5044750423       10.1878736414       18.7738647770
  H        16.7519954297        5.2274501649        4.7641627441
  H        17.2182591064        6.5209720992        5.7282261082
  C        17.9350977206        4.6451867567        6.3327582997
  H         5.0795191372        5.7276115722        1.0823042355
  H         5.7330966369        5.7637259810        2.7743634094
  C         5.5688552658        7.6986944680        2.0464170735
  C        12.7801529472        0.0030123473       -2.6705103177
  S         5.3978234619        6.1635434575       21.4468319409
  C         5.7840079582        9.1319331845       21.3416046568
  H        17.4069019241        3.6766349894        6.6416298040
  H        18.7857106457        4.4335235536        5.6161762856
  C        18.3197665464        5.2688154957        7.6145030101
  H         6.0468723018        8.2969847912        1.2000287447
  H         5.9315237736        8.1235891352        3.0353429725
  C         4.1137446105        7.9732709120        1.8911785162
  H        12.4530024603       -1.0336924433       -2.6464753656
  C        13.3715728129        0.2744727078       -3.8417699434
  H         5.0314299370        8.7241377546       21.9871825371
  H         5.4996720771       10.1716599120       21.2457415399
  C         7.1278776681        8.9061066227       22.1434355432
  H        18.4101202067        4.4731442419        8.3282714361
  H        17.5612477907        5.9282474439        8.0097119324
  C        19.6074888726        5.9330140878        7.5105514618
  H         3.7570021178        7.8604301534        0.8662649546
  H         3.5338567384        7.3136536192        2.4740664986
  C         3.7218694050        9.4016325741        2.3652299506
  S        13.9844764141        1.7582114232       -4.4035371656
  C        13.3806684945       -0.8458873334       -4.8550380587
  H         7.2434003934        7.8488184416       22.1861984314
  H         6.8525565998        9.2602053982       23.0807126021
  H         7.9992755203        9.4026562739       21.7725337010
  H        19.7434566310        6.3773942237        8.4222065792
  H        20.3955305827        5.3250976421        7.1865998439
  H        19.5349704798        6.7661191629        6.8342058383
  H         4.2437922395       10.0980382294        1.6600222743
  H         2.6986683922        9.5747373760        2.2783058510
  H         3.9890912108        9.5814379718        3.4269882797
  C        14.1258229486        0.9722684840       -5.9997396720
  N        13.8863129032       -0.3749750455       -5.9934407527
  O        12.9786545688       -1.9876759924       -4.5688767966
  S        15.1898570315        1.5401904583       -7.2174510970
  C        13.9087325234       -1.1568852233       -7.2482197642
  H        13.9196305177       -2.1376642591       -6.8390812308
  H        14.8230410646       -0.9989608379       -7.7340948182
  C        12.6747659444       -1.0484695825       -8.0925145149
  H        12.9746023242       -1.2294934267       -9.1284544892
  H        12.2833307520       -0.0383054851       -8.1144901379
  H        11.9085238801       -1.7894567981       -7.7799697885
