352
 i =    73100, time =    36550.000, E =        98.1592243029
  H        12.1013033749        7.3429216024       32.3537036880
  C        11.8806675617        6.3117147447       32.3781290351
  H        12.8334557456        5.8484945940       32.2568131435
  C        10.8434677645        6.0408016232       31.3175045732
  C        11.2837051343        6.1370307319       33.7448638431
  C        11.1691872832        6.6941767927       30.0308241737
  H        10.8974598313        4.9956449121       31.0885184986
  H         9.7187501465        6.3220850370       31.4666164418
  H        11.1769632776        5.0730291244       34.0255514159
  H        11.9641394196        6.6398413069       34.4543272100
  H        10.2817564776        6.5897363254       33.8550187240
  C        10.2849224929        6.1508764227       28.8368810634
  H        12.2422584902        6.7150631408       29.6696962002
  H        11.0176646699        7.7966100313       30.0759459433
  C        10.9432993851        6.1382875737       27.3796633217
  H         9.8996510319        5.1217436953       29.1178490196
  H         9.4532479636        6.8485248715       28.9485694217
  C        10.0036692700        5.4722102069       26.3678019362
  H        11.7281321683        5.4946872297       27.4388429047
  H        11.3255042024        7.1230630527       27.0173824739
  C         8.7778396220        6.2892731025       25.9948783188
  H        10.5576723324        5.3575094431       25.4180024709
  H         9.8319776283        4.4707761376       26.6832233366
  C         7.6427725284        5.4273607939       25.4447746134
  H         8.3136954458        6.9073273693       26.7594460122
  H         9.1874833554        6.9688640317       25.2444183392
  C         7.3340972164        4.0695880432       26.1883592817
  C         8.0473986382        4.6200211615       24.2214927190
  C         6.3276575996        6.2279486904       25.3755212717
  C         7.6024743509        2.8884717987       25.4393524954
  C         6.6941263663        3.7840831813       27.4139612334
  C         8.0445389714        3.2537020212       24.1990291643
  C         8.4756582634        5.2028103163       23.0661023881
  H         6.4537607844        7.1890995714       24.9072261273
  H         6.0631681277        6.3880880483       26.4386302201
  C         5.0384906319        5.5453583845       24.8629669065
  S         7.0443730890        1.4373570029       26.1447284670
  C         6.5431538198        2.4168402090       27.5370837891
  H         6.5804224248        4.5067682523       28.1188175868
  C         8.4416287149        2.6240368589       23.0249601843
  H         8.3652409975        6.2749915025       23.0520617335
  C         8.8297204349        4.6278227200       21.8805149406
  H         5.2697882904        5.2812841249       23.7942016513
  H         4.9641036724        4.5838166700       25.3547497675
  C         3.6034371604        6.2911765292       24.8755636070
  C         6.0686175218        1.7421708201       28.7502885460
  C         8.7889160426        3.2559402393       21.8009288152
  H         8.3080530253        1.5169238059       23.0532802491
  C         9.1265293561        4.9770957465       20.5843135236
  H         2.9428299189        5.6433394279       24.3026651966
  H         3.5394936289        7.2632108497       24.3773321612
  C         3.0806128115        6.4586762835       26.2714221886
  C         6.1149907862        0.3275257381       29.0994385340
  C         5.4738341088        2.6285366114       29.7593855159
  C         9.0541773420        2.5266786316       20.4530827877
  C         9.1913253592        3.9113069504       19.7593524599
  S         9.5160910931        6.4768089260       19.7300105455
  H         2.3702671242        7.3394233824       26.2735760481
  H         3.9023723677        6.8317205833       26.9148814428
  C         2.3519561774        5.2796901002       26.8294707551
  N         6.4627798594       -0.7385467087       28.2830377412
  C         5.8060194965       -0.1308138563       30.3534807325
  C         5.1482503086        2.1181089229       31.0482127008
  H         5.3765950915        3.7236770607       29.5676675011
  C         7.8877210233        1.6999176003       19.8166400852
  C        10.3675367977        1.8569300786       20.3129847328
  C         9.5613739536        4.3122262571       18.4078655356
  C         9.6496589406        5.6256081567       18.2428658654
  H         1.5239202577        5.1497512457       26.1746379291
  H         2.9411305228        4.3747833628       26.8794275135
  C         1.6878272282        5.5740954786       28.1849402140
  S         6.3317873885       -2.1271934996       29.0778788172
  N         5.9676925861       -1.5361006972       30.4997060647
  C         5.3089375835        0.6766792886       31.3847830268
  H         4.7408739006        2.8365096125       31.7310989703
  H         7.7903228052        0.8257840152       20.4322831565
  H         8.1194434856        1.4198004823       18.8458900569
  C         6.5741788428        2.4284716503       19.5880831551
  H        10.4969886251        1.7118312833       19.2727922222
  H        10.3244888522        0.9049975922       20.8544886979
  C        11.5027422251        2.5965159980       20.9657922680
  H         9.7137057939        3.5631744385       17.6181671799
  C        10.0531996614        6.3315980671       16.9705599719
  H         0.8915518478        4.8424128010       28.4506222227
  H         1.2628886881        6.5530393712       28.1355155925
  C         2.8948849886        5.5452563854       29.1778961796
  C         5.1004633123        0.0007308157       32.6285371959
  H         6.5639405315        3.2186754621       18.8559041822
  H         6.2578338556        2.8583793731       20.4812910539
  C         5.5188366536        1.4329302690       19.0612765478
  H        11.4408986834        2.7695307358       22.0039770656
  H        11.7601290445        3.4706916563       20.4255618354
  C        12.6613982489        1.5825598093       20.7906095187
  C        10.0915716953        7.7394727658       16.8125992615
  C        10.1591944595        5.5780675235       15.6670057079
  H         3.6080381863        4.7341870210       28.9885139616
  H         3.4981711948        6.4661378069       29.0839566464
  C         2.4413909107        5.4653049935       30.6482892875
  H         4.6792248579       -0.9938516329       32.5835335006
  C         4.9168716346        0.4579333869       33.9411460258
  H         5.2718469600        0.6106441547       19.6790359168
  H         5.9459994608        0.9822836454       18.1579108928
  C         4.1776605155        2.1176336310       18.6856097678
  H        12.5197656195        0.6276345264       21.3196433570
  H        12.6154071152        1.4132634251       19.7135510510
  C        14.0539283304        2.2284357503       21.0629380865
  N         9.9348806431        8.6401571105       17.8807752231
  C        10.5289795331        8.2998685838       15.6424164459
  C        10.5634766433        6.1697876923       14.4664817132
  H        10.0052428025        4.5269210503       15.7340307782
  H         1.6861548643        6.2048963117       30.8299201176
  H         2.1294194188        4.5210308290       31.0723965403
  H         3.2011494093        5.9032341910       31.3975912725
  S         4.8149461776        2.0643646463       34.5080834406
  C         4.7683946593       -0.6028204621       35.0108565394
  H         4.0524890780        2.8589995607       19.4385443336
  H         4.2960385153        2.5154146276       17.6576887454
  C         3.0053387506        1.1582406153       18.7424561386
  H        14.1143529062        3.1484390869       20.5062801521
  H        14.7860772195        1.4874919533       20.7814539040
  C        14.3038100984        2.4206866722       22.5620827304
  S        10.1965797536       10.0966184079       17.2785996547
  N        10.5870037364        9.6848613641       15.7387629171
  C        10.7603483107        7.6256605070       14.4524278991
  H        10.6558609192        5.5123687368       13.6087110055
  C         4.5230781491        1.3816709790       36.1414419547
  N         4.4403262575        0.0470696347       36.1614793898
  O         4.8757929594       -1.7936274784       34.7670623816
  H         2.1113945146        1.6948888397       19.0207502564
  H         3.2387972675        0.5904057883       19.6295361429
  C         2.8169848864        0.3825364998       17.4503792328
  H        13.4511675985        2.6469376348       23.1966524879
  H        14.5664871534        1.4669492058       22.9611689585
  C        15.4360180960        3.4306550445       22.8276239450
  C        11.1865147840        8.3746996103       13.3053964933
  S         4.1995526803        2.2594948767       37.6375696343
  C         4.2108272342       -0.8363195466       37.3462383373
  H         2.3893068708        1.0743272638       16.7320425750
  H         3.7023603839       -0.0947354314       17.0494777624
  C         1.6903369203       -0.6996531182       17.5690814295
  H        15.4979044994        3.7161661101       23.9102231098
  H        15.1969592344        4.4160619078       22.3930304261
  C        16.7786200960        2.8801809234       22.3129295979
  H        10.8671737907        9.3355232884       13.3978068528
  C        11.6153485264        8.0900242806       12.0607582001
  H         3.5064344799       -0.2880845446       37.9675012431
  H         3.6724612976       -1.6541611791       37.0548311437
  C         5.5271106968       -1.1935660347       38.1121060994
  H         1.7300157341       -1.2400041098       16.5494212084
  H         0.6361446804       -0.3109477804       17.7502677654
  C         2.0355822948       -1.7655933297       18.7065694132
  H        16.8106653364        2.0998196874       21.4502982874
  H        17.2613398606        3.8112999758       21.9583258147
  C        17.5499319119        2.3023967445       23.3308491597
  S        12.2157955729        6.5150548017       11.5055186281
  C        11.5448141617        9.1579784249       11.0364553982
  H         6.2156816502       -1.6361920559       37.4821617642
  H         5.8982295025       -0.4244438625       38.7534929813
  H         5.3101236710       -1.9869358481       38.8287562446
  H         3.0951192586       -1.8450845484       19.0752843834
  H         1.7967551780       -2.7876216998       18.2811718668
  H         1.5224329991       -1.5703276391       19.6367333427
  H        18.4711643224        1.8866973948       22.8596831714
  H        17.0219052894        1.3884253111       23.7711412599
  H        17.8762851833        3.0248519237       24.0888632481
  C        12.3415136524        7.2974839267        9.9225951759
  N        12.1364052369        8.6304017649        9.8885712964
  O        11.1706323431       10.3739141216       11.1438369013
  S        12.9602312641        6.4760472438        8.4482968471
  C        12.2396695835        9.4409321024        8.6980802069
  H        12.3171667797       10.4683984414        8.9443802735
  H        13.1224920348        9.1428712277        8.0956390520
  C        10.9470509951        9.2037878043        7.9513729544
  H        10.2175491393        9.9266079065        8.2620664779
  H        11.0551397502        9.1743171565        6.8709891939
  H        10.5391456263        8.1765152627        8.0749328853
  H         2.4287583810        1.4460173589       12.9858550303
  C         3.2811972324        2.0321707745       12.7691588989
  H         4.1397516095        1.3511106819       12.6138257813
  C         3.1062551706        2.8610221018       11.4520996329
  C         3.6352126145        2.7102912033       14.0577763301
  C         4.2996906604        3.0426318832       10.5878632971
  H         2.7510132483        3.8667788316       11.7072173808
  H         2.1938093708        2.3418184922       10.9790606625
  H         3.7002077843        1.9133046415       14.7883502829
  H         2.8948420638        3.4981987791       14.1726195139
  H         4.6188874851        3.2117159721       14.0498770648
  C         4.6463463205        1.7139926353        9.9558972841
  H         4.1067805128        3.6209935183        9.7129684025
  H         5.0543152414        3.5883378706       11.1593976496
  C         5.2722173119        1.8129964867        8.5478363303
  H         3.7753025052        1.0168030355        9.8944031516
  H         5.3001494504        1.1397807943       10.6103590359
  C         6.6019303713        2.6551524910        8.5300938904
  H         4.5578715718        2.3113532689        7.8246598937
  H         5.5709518590        0.8026891814        8.1492569863
  C         7.8718697203        1.9596701451        9.0018504172
  H         6.6602509358        2.9010165317        7.4966950056
  H         6.3966911770        3.6226391635        9.0467813098
  C         9.1206109305        2.8543898430        9.2312417136
  H         8.1500347789        1.3278299075        8.1723367260
  H         7.6420613430        1.2718854796        9.8609498223
  C         8.7000780989        4.2023022983        9.7929484179
  C         9.5668749086        3.5659790789        7.9746166651
  C        10.2521017887        2.1743922533       10.0607166345
  C         9.0478447989        5.2656805870        9.0558693562
  C         8.0215559230        4.5343202177       10.9659799030
  C         9.7120593976        4.8976467649        7.8850800873
  C        10.0143877981        2.9101237208        6.8032085060
  H         9.8260799620        1.9060232262       11.0249396549
  H        10.6820040561        1.2331398275        9.7046225126
  C        11.4062128147        2.9827718235       10.5296455963
  S         8.6956596864        6.7971283273        9.8090680771
  C         8.0195469744        5.8909805300       11.1550241158
  H         7.7336068766        3.7781809239       11.6744876313
  C        10.1813661295        5.5433282551        6.8026273195
  H        10.0193974877        1.8460119238        6.9516863181
  C        10.5499484674        3.5330624707        5.6926581529
  H        10.8809429136        3.8264414161       11.0124846612
  H        11.9982643318        3.3494120881        9.6956189958
  C        12.3674012469        2.3393708691       11.5648906128
  C         7.5539485451        6.5328568038       12.4406897734
  C        10.6096329146        4.9355483947        5.6402294363
  H        10.0821631018        6.6306234462        6.7879865179
  C        10.9751916041        3.1245277816        4.4263609884
  H        13.2753528368        2.9096698029       11.5089604106
  H        12.5694144640        1.3637135470       11.1430141539
  C        11.8339404301        2.1230392641       12.9977820124
  C         7.7077490462        7.9084377202       12.7569293887
  C         6.9148564696        5.7840336380       13.5289116694
  C        10.9523716202        5.5531373226        4.3483894443
  C        11.2428787288        4.2242131423        3.5966762022
  S        11.0968445351        1.5984109801        3.5294099434
  H        11.5815311082        3.0248358692       13.4336453932
  H        11.0023688944        1.4546328862       12.8895477617
  C        12.8669940181        1.5809277310       13.9577617242
  N         8.2273168538        8.9246609483       11.9791652628
  C         7.3573012715        8.4271255131       14.0303507748
  C         6.6211369378        6.2589839859       14.7837386714
  H         6.5446341746        4.8685180865       13.2009151987
  C        12.1975434516        6.4818766219        4.4986190417
  C         9.7896109277        6.4354385075        3.7526040779
  C        11.5400086436        3.8584081742        2.3006518700
  C        11.5031535701        2.4629136258        2.1150990327
  H        13.5454340544        2.4005571923       14.0326658342
  H        13.4529557362        0.7577271737       13.4962972380
  C        12.2495821760        1.1246241273       15.2924460554
  S         8.0692088740       10.3724092464       12.7265183058
  N         7.6240145548        9.8053571923       14.1406569118
  C         6.8826099943        7.6704416262       15.1452724021
  H         6.1539646971        5.5856440123       15.4213509546
  H        12.0625243383        7.2797282019        5.2840893744
  H        12.3740264322        7.1418872835        3.6559297253
  C        13.4296190210        5.6885040671        4.9707586012
  H         9.4016195968        7.0773223960        4.5631103613
  H        10.1945689521        7.1363749294        3.0297443882
  C         8.6462231773        5.7116510564        3.0165040647
  H        11.6644631177        4.6087266396        1.5298892607
  C        11.8663415166        1.7673051002        0.8789368286
  H        11.3407554135        0.5068411602       15.1352855566
  H        13.0382274259        0.5573654230       15.7662979754
  C        11.8552177579        2.2193146303       16.2470767969
  C         6.7552498893        8.2414359219       16.4186588434
  H        13.2293873363        5.0665586379        5.9073722186
  H        13.5577786667        4.9545673072        4.1987628583
  C        14.6918688283        6.5044103568        5.0367977689
  H         8.2358716516        4.9657749423        3.7162006097
  H         9.0699658868        5.0733220494        2.2277381560
  C         7.5851856764        6.6552652016        2.4474512855
  C        11.8401082403        0.3902271313        0.5682734428
  C        12.1839638171        2.6307592005       -0.3210459454
  H        10.9504401204        2.0665574984       16.8199724435
  H        11.4757121522        2.9614558951       15.5982941251
  C        12.9760687647        2.6861331124       17.1614437530
  H         7.0046937457        9.2879612425       16.4207956128
  C         6.4678326154        7.7255384533       17.6561502660
  H        14.7083702785        7.2124898540        5.8180674132
  H        14.8337140369        7.2086851118        4.1895695331
  C        15.8349919175        5.5333251636        5.1809452404
  H         7.4278683482        7.3651459953        3.2687482785
  H         7.9319711169        7.3330646394        1.6024456349
  C         6.2559752559        5.9985744491        2.1886880454
  N        11.6944727900       -0.5542490409        1.5448974003
  C        12.2791037100       -0.1398582692       -0.6369923974
  C        12.4985476576        2.1322723421       -1.6172099516
  H        12.2806515479        3.6633639206       -0.1614683818
  H        13.7355254381        3.1246606646       16.6445691461
  H        13.4010079922        1.8879773607       17.7961809243
  H        12.5483519304        3.4722909516       17.8429208849
  S         6.1566354928        6.0097982495       17.9762170873
  C         6.4220244041        8.7421487681       18.7492127870
  H        15.5875445652        4.7486956948        5.9475496430
  H        15.8427525217        4.9719843285        4.2884231111
  C        17.2691612254        6.0965625981        5.4821909908
  H         5.9038576711        5.9135247272        3.2163883146
  H         6.4331194653        4.9938443878        1.8151278524
  C         5.3722539279        6.8341335406        1.2500905744
  S        11.9406204816       -2.0497641998        0.8772231094
  N        12.3702684645       -1.5609380084       -0.6254236770
  C        12.5564695692        0.6199149502       -1.8002402145
  H        12.8427462049        2.8210282627       -2.3530119864
  C         5.9498083155        6.7060839380       19.6462918339
  N         6.0241276231        8.0590888181       19.8340501724
  O         6.6877486040        9.9302908585       18.5766992982
  H        17.9381639650        5.9069243403        4.6345345123
  H        17.1080553588        7.1446746563        5.5322076394
  C        17.8518120713        5.6629322141        6.8915466801
  H         5.8869383141        6.7916937490        0.3077364220
  H         4.3711339441        6.4204128232        1.2163531395
  C         5.2409602407        8.3552991539        1.5918673007
  C        13.0124461660       -0.1050473803       -2.9720202819
  S         5.8930144873        5.6816921555       21.0428140748
  C         5.9831444384        8.7773565421       21.1244211871
  H        17.1317812680        5.7065900199        7.6776200161
  H        18.0116286426        4.6192568922        6.8629176848
  C        19.1750686456        6.1580718583        7.3895512044
  H         6.2545598751        8.8725025971        1.6413629844
  H         4.8102292286        8.3499531655        2.6509279533
  C         4.4069177025        9.0993275549        0.5303269631
  H        12.5728833414       -1.0801904277       -3.0479557958
  C        13.5660365224        0.3449596830       -4.1716127879
  H         5.3930121954        8.2384882591       21.9490508896
  H         5.5094629937        9.7122678483       21.0574492844
  C         7.4054193489        9.1300132750       21.6081806190
  H        19.5453691575        5.4332336725        8.1610043123
  H        18.9745750765        7.1367326938        7.9355986516
  C        20.2039630609        6.3835389687        6.3159840035
  H         4.4971602895        8.7048861806       -0.5107277816
  H         3.3725622189        9.0247099471        0.7651175759
  C         4.7365153199       10.6312544254        0.4943935580
  S        14.2104175578        1.9221331808       -4.4922791363
  C        13.6669968867       -0.6572804961       -5.2484015068
  H         7.9949717472        8.2050752248       21.7025732682
  H         7.3582617123        9.6008984205       22.6059833294
  H         7.9663531989        9.7762510670       20.9140715293
  H        20.4023748497        5.5002114447        5.6650771943
  H        19.9161263943        7.3028830322        5.7921478513
  H        21.1653960387        6.5907719851        6.8012364516
  H         4.2321496648       11.0819448662        1.3275627979
  H         5.8189846112       10.7220768159        0.5855311442
  H         4.3371617554       10.9020575057       -0.4619406051
  C        14.7692646341        1.2120953859       -6.0991199090
  N        14.3644711549       -0.0803079573       -6.2145564613
  O        13.3906587601       -1.7975160139       -5.1692379978
  S        15.6647998711        2.1053531546       -7.3159521620
  C        14.6339082642       -0.7630579730       -7.4868220811
  H        14.6254015596       -1.8462848422       -7.3460941774
  H        15.6230688851       -0.5077831885       -7.8155080355
  C        13.4070037917       -0.5496144452       -8.4398798441
  H        12.7932057540        0.1716281157       -8.0511859075
  H        12.7615299969       -1.4813185824       -8.4944976188
  H        13.7261138324       -0.2818220187       -9.3587089229
