352
 i =    78700, time =    39350.000, E =       100.3274503885
  H        12.1350934887        6.5949261806       32.6562830950
  C        11.4200708774        5.7247629354       32.5420707702
  H        12.0087097133        4.8769429423       32.2529846347
  C        10.4535122214        6.0871044598       31.3126076703
  C        10.9155305953        5.5980682264       33.9173402093
  C        11.1384816871        5.7897746893       29.9061470935
  H         9.5419196676        5.4405252115       31.3936416344
  H        10.0262365447        7.1028890940       31.4122901123
  H         9.9728074534        6.0256972775       34.0942905155
  H        10.7205001147        4.5525099170       34.1748105111
  H        11.6184533667        6.0419508241       34.6010365694
  C        10.1713066575        5.6571972742       28.7535809007
  H        11.6653550297        4.9026521732       29.9178597722
  H        11.9595856508        6.4870402402       29.6718073231
  C        10.8387461407        5.5498041393       27.4308057329
  H         9.6758774015        4.7195037751       29.0840484076
  H         9.4005494702        6.4251206091       28.9597756880
  C         9.8451241798        5.0594717592       26.3990786450
  H        11.6181612778        4.7587813455       27.5438152018
  H        11.3293542392        6.4424521020       27.1005396994
  C         8.5499942626        5.8893230672       26.2997137161
  H        10.2809340591        5.0026336692       25.3877202924
  H         9.7184124379        4.0132261776       26.6585050402
  C         7.4224626098        5.3114989917       25.4880136172
  H         8.1558563440        6.0332331601       27.2955653646
  H         8.7707258722        6.9134911910       25.9102106682
  C         7.0252305900        3.9308473181       26.0578756527
  C         7.8714037208        4.6071817621       24.2309230324
  C         6.1994667426        6.2778486819       25.4218221678
  C         7.2235622624        2.8350378822       25.2695709365
  C         6.4972978757        3.5190229790       27.3010296512
  C         7.8287725401        3.2445806407       24.0980601515
  C         8.4081786637        5.1613048863       23.0452896005
  H         6.5165302952        7.1514570904       24.8436461605
  H         5.9299522414        6.5357316348       26.4169127466
  C         5.0374900096        5.6411482412       24.7376860014
  S         6.7995511407        1.2966815672       26.0008659014
  C         6.3794795053        2.1588451807       27.4078670812
  H         6.2530018284        4.2746341885       28.0300776772
  C         8.2601296070        2.6286716441       22.9608783561
  H         8.6023309264        6.2306201096       22.9596747220
  C         8.8174784286        4.5725867707       21.8983336474
  H         5.2648254878        5.5429090587       23.6536042574
  H         4.8448905882        4.6136783441       25.0691097237
  C         3.7374336682        6.4432363773       24.8013333253
  C         6.0399791778        1.4128376681       28.6525560306
  C         8.7273062537        3.2641278508       21.7547010092
  H         8.1812894752        1.6134955698       22.7809419318
  C         9.2264111792        5.0052548429       20.6333879073
  H         2.9891313621        6.0430369971       24.1058267566
  H         3.9292943180        7.3555674909       24.4084131673
  C         3.1666137274        6.5945015347       26.1869429214
  C         6.1217349024        0.0347468402       28.9077084291
  C         5.5802616107        2.3036159336       29.8146089550
  C         9.1070136918        2.6009957054       20.4590689244
  C         9.4484368441        3.9513147188       19.8267206422
  S         9.7181711806        6.5206857896       19.9403996145
  H         2.3716366542        7.3021460416       26.2485701765
  H         3.9068102459        6.9238209765       26.9362417373
  C         2.6358569459        5.2094708422       26.6546150472
  N         6.4786411851       -0.9552930410       27.9834064947
  C         5.9535409202       -0.5050000045       30.1964054039
  C         5.2995554634        1.7035278924       30.9894491546
  H         5.4173351614        3.3812154222       29.6853558389
  C         7.9611930098        1.8222147072       19.7517740493
  C        10.3702041037        1.7795995847       20.5913272383
  C         9.9247788891        4.3436223429       18.4968719306
  C        10.1214464961        5.7005703892       18.4256787810
  H         1.8963722363        4.9168747581       25.9036064940
  H         3.4088121155        4.3715940165       26.5912848359
  C         1.9556305536        5.1873132872       28.0004249238
  S         6.4975933202       -2.3949668961       28.7482967679
  N         6.0815664807       -1.8885311960       30.2102966598
  C         5.6029434504        0.2481516768       31.2636081288
  H         4.9048422038        2.2918715459       31.7706193102
  H         7.7683433053        0.9324720970       20.3460049534
  H         8.4911137557        1.4366034260       18.8839059142
  C         6.7321645444        2.6571874425       19.4178613839
  H        10.6642034409        1.3428075783       19.7042647991
  H        10.0622730362        0.9051515257       21.0631720576
  C        11.6252069235        2.4031521349       21.1804215338
  H        10.0011186889        3.5973804934       17.7025303634
  C        10.4177583126        6.4456661091       17.1058750203
  H         1.1990845638        4.3915764473       28.0671985725
  H         1.3912393666        6.0944218660       28.1409148145
  C         3.0044562440        4.8693160427       29.0854813183
  C         5.5586536428       -0.3372597622       32.5596100781
  H         7.0431072178        3.3276020834       18.6685575271
  H         6.4051736725        3.2426559089       20.2718647894
  C         5.6346918770        1.8163242052       18.7422027288
  H        11.4096296097        2.7238598201       22.1602747859
  H        11.9635963786        3.2244000316       20.4902738407
  C        12.7760288488        1.4473327387       21.2280279551
  C        10.3599405189        7.8870830100       16.9789152291
  C        10.4585261719        5.7377054871       15.7944410683
  H         3.3412369179        3.8475881849       28.9873753133
  H         3.9352236466        5.4760659980       28.9766401836
  C         2.4612833411        5.1432183696       30.5072743869
  H         5.8718068274       -1.3472346895       32.6423534422
  C         5.0422838538        0.0182951868       33.8058388765
  H         5.3554367900        1.1547289210       19.4763829154
  H         6.0060188411        1.2589083021       17.9656008655
  C         4.3247712797        2.4789524957       18.5178273480
  H        12.4790432487        0.7023443260       21.9921390340
  H        12.7868958746        0.9449316404       20.2392037975
  C        14.1188694530        2.1082070974       21.5399867979
  N        10.1155223569        8.8029586660       18.0074221287
  C        10.6631382974        8.6605533805       15.8217707333
  C        10.6441952799        6.4436609273       14.6308242056
  H        10.5107633617        4.6809662284       15.7289211314
  H         1.6599129234        4.4749417266       30.9102727518
  H         3.2762845034        5.0598408317       31.2031965373
  H         2.0882814269        6.2090051550       30.5143789872
  S         4.3930517210        1.5338976603       34.1534856745
  C         5.1202326023       -0.9336754207       34.9353738157
  H         4.2169911553        3.2850882758       19.2407511499
  H         4.2840815279        2.8559101375       17.5006011264
  C         3.1028232954        1.5707802679       18.6763643933
  H        14.1202146093        2.9062917815       20.8772387411
  H        14.9026136820        1.4019357158       21.2369328965
  C        14.2995748106        2.5381367363       22.9915521928
  S         9.9900745053       10.2672631941       17.4012878971
  N        10.5057074863       10.0179025350       15.9534851874
  C        10.8121032078        7.9617815135       14.5883136065
  H        10.6166801777        5.8295349872       13.7580025713
  C         3.9998296870        0.7986184394       35.7944559941
  N         4.4169939774       -0.4769592452       35.9512961512
  O         5.5733324698       -2.0678127871       34.8843370835
  H         2.1945567144        2.2094354242       18.6903913072
  H         3.1553803008        1.1244037006       19.6711341659
  C         3.0464075385        0.5774674440       17.5014747576
  H        13.4575112056        2.9902518335       23.4084794697
  H        14.3898384239        1.6676186850       23.6126569016
  C        15.4785398835        3.4253929461       23.1888566933
  C        11.1305326102        8.6691403784       13.3854426605
  S         3.6014377889        1.7873932868       37.1932265680
  C         4.4617825063       -1.2008958618       37.1952675152
  H         3.0709836135        1.0204529322       16.4836510692
  H         3.9661927262        0.0331524813       17.4626170627
  C         1.8469372520       -0.3872540296       17.6569356366
  H        15.7077087403        3.1677143804       24.2463159119
  H        15.2003856853        4.4546880374       23.0957999653
  C        16.7742906990        3.0691539761       22.4011524233
  H        11.0799217704        9.6751564569       13.5811276840
  C        11.6125643044        8.2306580648       12.1545021488
  H         3.6304055287       -0.7388695173       37.8787197874
  H         4.2506900306       -2.2122943230       36.9799692456
  C         5.8623044246       -1.1157300338       37.8639239230
  H         1.3428630317       -0.6231921986       16.6501654091
  H         0.9212185998       -0.0309604318       18.2451588465
  C         2.2253937010       -1.7488534037       18.1742200677
  H        16.5616578962        3.0888021618       21.3438082012
  H        17.4550148724        3.8988362989       22.6099979657
  C        17.4730668946        1.8002335384       22.8801566270
  S        12.0638713118        6.6446003623       11.7085003964
  C        11.8078954717        9.2277302297       11.0315753033
  H         5.7160923568       -1.4594013388       38.8787094303
  H         6.6033959766       -1.7896552736       37.3974171538
  H         6.2654961743       -0.1224911645       37.9069178853
  H         1.6377067448       -1.8541619354       19.0893780784
  H         3.3271473478       -1.8885425798       18.2764689539
  H         1.9421392304       -2.5959487739       17.5162885113
  H        17.4067107698        1.6680940067       23.9747381275
  H        18.5099194307        1.9829061727       22.6459422072
  H        17.1991779599        0.8806864656       22.3428079087
  C        12.2630979070        7.3488781161       10.0404613843
  N        12.2515066451        8.6467299787        9.9660796807
  O        11.7520522853       10.4460618245       11.1848348987
  S        12.5881753818        6.5134778275        8.4860987539
  C        12.2020170973        9.3676771803        8.7045784304
  H        12.4777689374       10.4416511369        8.8732237559
  H        12.9569115897        8.9910510456        8.0787872522
  C        10.7460112652        9.2552161981        8.1046111627
  H        10.8608825954        9.4181710409        7.0479059403
  H        10.1865993156        8.3748749361        8.3646743241
  H        10.1333775143       10.0586145226        8.5197433867
  H         2.3169180985        0.7003492362       12.5103751205
  C         3.0343626435        1.5477997946       12.1817416181
  H         3.9164157728        0.9710905388       12.0200070678
  C         2.5054972766        2.0598082984       10.8667895037
  C         3.3699066985        2.5415871405       13.1810038672
  C         3.5324553620        2.6022368661        9.9651995531
  H         1.6592517391        2.6089408073       11.0533984614
  H         2.2031381923        1.1622874482       10.3805660047
  H         4.3869996627        2.8921037892       12.8918587556
  H         3.4417299087        2.0952772360       14.2014622455
  H         2.6724873503        3.3507830958       13.0794264131
  C         4.4319545926        1.5010778977        9.3862954101
  H         3.0302590742        3.1993979171        9.2085399375
  H         4.0928305839        3.3314766808       10.6027296812
  C         5.1611495189        1.9499564514        8.1090098716
  H         3.8570459525        0.5638155375        9.1857127328
  H         5.1842415029        1.2419416414       10.1456446249
  C         6.2861604517        2.9476502883        8.3265646937
  H         4.4838571145        2.4025334127        7.3358713048
  H         5.5923978908        0.9939916261        7.6701428306
  C         7.6048034820        2.2142185412        8.7692476524
  H         6.4673445658        3.4526718325        7.3662703748
  H         5.9123582383        3.4756547431        9.1359950271
  C         8.9034144737        3.0334396286        9.0758487744
  H         7.9078022520        1.6971705914        7.8323176193
  H         7.4567941048        1.4921003036        9.6193863794
  C         8.4570312224        4.3114998222        9.7519102069
  C         9.3487577230        3.7693892634        7.8750608225
  C        10.0232257063        2.2397057351        9.8175324231
  C         8.6552681648        5.4202388299        8.9525717758
  C         8.0726692494        4.6398334745       10.9867740899
  C         9.2383886252        5.1256565991        7.7587335158
  C         9.9353559090        3.1216552831        6.7767540326
  H         9.6258819725        1.9008697741       10.7905453937
  H        10.2275555827        1.2624581182        9.4088976915
  C        11.2749519261        3.1018466717       10.0536107023
  S         8.2742560331        6.9122236777        9.7867831318
  C         7.9696700633        5.9677765043       11.1936923262
  H         8.1058488573        3.8599469700       11.7672139017
  C         9.6513113666        5.7679457277        6.6213995202
  H        10.0470901928        2.0652411981        6.7457935607
  C        10.2815516755        3.8187522645        5.6522485795
  H        10.8541966699        4.0515476994       10.4545265053
  H        11.8291096409        3.2627658434        9.0729890281
  C        12.3629926211        2.5045024840       10.9368929939
  C         7.7642899359        6.5672175588       12.5020963476
  C        10.2009048845        5.1494319501        5.5171266711
  H         9.4874181202        6.8215535168        6.6264808685
  C        10.6227162400        3.3953851640        4.3909099463
  H        13.1178260864        3.2220066782       10.9388935781
  H        12.7661525224        1.5986896241       10.4287597620
  C        11.9845407353        2.1951446080       12.4204227527
  C         7.8507684947        7.9406118483       12.8216431845
  C         7.4868262345        5.6773591154       13.6432906228
  C        10.6109059297        5.8469138306        4.2228153398
  C        10.7786917850        4.4731619168        3.5143226686
  S        10.8628363800        1.8710162066        3.7095973231
  H        11.3046778803        3.0604165308       12.7508486275
  H        11.3955491650        1.3137103422       12.6027299344
  C        13.2328357105        2.0410648530       13.2540045576
  N         8.2351786202        8.9444985546       11.9246919725
  C         7.5777312988        8.3731141387       14.0841737314
  C         7.1870927376        6.1753323189       14.8686503319
  H         7.3635547266        4.6280863961       13.4785604561
  C        11.9901023941        6.5280727170        4.2145345314
  C         9.5741726940        6.7777386993        3.5047072449
  C        11.2598878613        4.0109902861        2.2911990688
  C        11.3258236502        2.6403256957        2.2381308820
  H        13.5868387144        3.0408700003       13.2085090650
  H        13.9626439069        1.4131486944       12.7389063276
  C        13.0923621363        1.4279321808       14.6980788778
  S         8.0576098413       10.3636440479       12.6887290279
  N         7.5963486826        9.7458228852       14.1425254599
  C         7.1878358374        7.6068058685       15.1682507849
  H         6.7934640368        5.5407767602       15.6403450225
  H        11.8172908714        7.4077828713        4.8563786843
  H        12.3221615004        6.9271700800        3.1782024324
  C        13.1373364070        5.7076812414        4.8004760119
  H         9.4277842089        7.6125484111        4.2253312736
  H         9.9502056258        7.2162368080        2.6217598711
  C         8.1021966577        6.2319700322        3.3589973034
  H        11.4998990636        4.7010949213        1.4207551039
  C        11.7255400921        1.8359116232        1.0228867115
  H        12.1566229449        0.9451164692       14.7358376263
  H        13.7247049350        0.5760656135       14.7668673074
  C        13.1551604786        2.3477517810       15.9407230994
  C         7.0279889673        8.3393401616       16.3763538831
  H        12.9626845133        5.0525592545        5.5850713326
  H        13.4542970999        5.0205682723        4.0362856163
  C        14.3429270036        6.5673535714        5.1839452780
  H         7.4980563752        7.0369981640        3.8034387843
  H         7.9320783832        5.3325241464        3.9603405826
  C         7.6813990630        5.9333793736        1.9243254677
  C        11.6912567532        0.4107968936        0.9389563858
  C        12.0814082858        2.5446490748       -0.2472042704
  H        13.0473770538        3.4255635160       15.5814521924
  H        14.1609377305        2.2874678739       16.3990119860
  C        12.0134396098        2.0079114701       16.9168797272
  H         7.0085699866        9.4130727724       16.2664212445
  C         6.7920737795        7.9468343928       17.7020827386
  H        13.9921547501        7.2883940088        5.9649032355
  H        14.7285597185        7.0756930312        4.2799387631
  C        15.4512131243        5.5718431576        5.6262272551
  H         7.9494795187        6.7800035026        1.2745053143
  H         8.2765014390        4.9928426795        1.6360143773
  C         6.2270291894        5.6892407712        1.8745199792
  N        11.3283640838       -0.4398984958        1.9517651955
  C        11.8405450744       -0.2572758943       -0.2621354590
  C        12.2424868303        1.8549280712       -1.4571310923
  H        12.1726056268        3.6532967546       -0.2764195470
  H        11.9667890217        2.6146059171       17.8404343990
  H        12.0620434230        0.9756717022       17.2944892024
  H        11.0678946042        2.1134964585       16.4196480496
  S         6.6810672943        6.3647652205       18.2337890672
  C         6.6438915994        8.9952174047       18.7156098835
  H        15.0365064240        4.8581124546        6.3377531813
  H        15.9367034983        5.0618930642        4.7357252674
  C        16.6973495015        6.2948629082        6.2537957936
  H         6.0748735320        5.0854627218        2.7264580002
  H         5.9947641750        4.9782059628        1.0257233657
  C         5.1932820134        6.8614066405        1.8291249156
  S        11.3805568121       -1.9625850238        1.4511006935
  N        11.8018317377       -1.6921411582       -0.1518251949
  C        12.0452313701        0.3354958461       -1.4920421879
  H        12.5191947687        2.4386715335       -2.3045322986
  C         6.4158040984        7.1070836713       19.8403089762
  N         6.2962909144        8.4855002847       19.8985855128
  O         6.6476507255       10.1866664893       18.4880004963
  H        17.2570133598        6.8787891549        5.4868809465
  H        16.3464964349        7.1180456832        6.9144614707
  C        17.5391846437        5.3235370910        7.1022835133
  H         4.1629203480        6.5131938086        1.6742818574
  H         5.1021745608        7.2236480006        2.8944901050
  C         5.4206100501        8.0070342234        0.8221576463
  C        12.3813920708       -0.4410835818       -2.6677081371
  S         5.6595576426        6.3051134578       21.1383345715
  C         6.3170669900        9.1915167152       21.2084732720
  H        16.9612590771        4.9521984712        7.9481742444
  H        17.6053541942        4.4080911082        6.5462955106
  C        18.9452076960        5.7363332396        7.5234938266
  H         5.5722272328        7.6659674548       -0.2082096102
  H         6.2417051311        8.6323360020        1.2151615976
  C         4.2017437753        8.9561476252        0.8293775372
  H        12.1565740842       -1.5286657417       -2.5677826445
  C        12.8528494091       -0.2259877965       -3.9438347735
  H         5.7047502462        8.7188675344       21.9407219628
  H         5.7686405177       10.1777146300       21.0612674608
  C         7.7029315234        9.2557764529       21.8076975492
  H        19.3075272076        4.8717143358        8.2091825383
  H        19.0018158804        6.6762593605        8.0980449818
  C        20.0050007299        5.9051342827        6.3269566804
  H         3.7257909229        9.0717802894       -0.1590784064
  H         3.4344960658        8.5016414390        1.5725534648
  C         4.6820924517       10.3194148154        1.3532221007
  S        13.4434280081        1.3327776566       -4.4687967771
  C        13.0353115867       -1.3707714606       -4.8797895037
  H         7.9284788979       10.2434213720       22.1546950199
  H         8.5304632509        8.9415215925       21.1393477072
  H         7.8684629764        8.6451883100       22.7659968261
  H        19.7082050160        5.1772316620        5.5782295427
  H        19.8264123058        6.8795478246        5.7145165546
  H        21.0709463914        5.8091900345        6.6752287577
  H         5.4514153007       10.7755639227        0.7927032194
  H         3.8171075079       11.0334437585        1.2370211194
  H         4.9188267365       10.2542695113        2.4194178155
  C        13.7766622079        0.5166846141       -5.9977627061
  N        13.5974586402       -0.8357122240       -5.9875482655
  O        12.6582568427       -2.5070332671       -4.6260155843
  S        14.5044012305        1.2839318901       -7.4468961760
  C        14.1143731845       -1.6379515317       -7.1344756259
  H        14.0832197197       -2.6165477795       -6.7665452847
  H        15.1947136304       -1.3624260353       -7.4056347878
  C        13.0836353668       -1.6989570633       -8.2617222362
  H        12.0529148188       -1.8962837499       -8.0211675254
  H        13.3942898715       -2.5588768959       -8.9633460933
  H        13.0127471473       -0.7539123728       -8.8340916737
