352
 i =    98100, time =    49050.000, E =        98.8084792479
  H        12.4343219342        5.2195669082       32.1118434968
  C        11.3628133729        5.1997292663       32.2548296188
  H        10.9661885436        4.2587658211       31.8319839396
  C        10.5682856378        6.3449107855       31.5512498862
  C        11.2253809634        5.1068958351       33.8130676661
  C        10.9032991248        6.5734244378       30.1344584177
  H         9.4910808875        6.2589370720       31.6649672680
  H        10.7588653444        7.2604762856       32.0506283716
  H        11.6591214176        4.1663713669       34.1715553118
  H        11.8070280386        5.8207395606       34.2789884985
  H        10.2489322825        5.1806766395       34.1819994685
  C        10.3285128936        5.5664589359       29.0032813179
  H        12.0146741398        6.5276638367       30.1971683867
  H        10.5428579603        7.5967478084       29.9924868706
  C        10.5986793643        5.9027269601       27.5942296607
  H        10.6467256293        4.5134768981       29.1994890998
  H         9.2355082196        5.4373789813       29.1172989867
  C         9.8541787279        5.2058714625       26.4716703026
  H        11.6652108594        5.6620465678       27.5378902563
  H        10.4121746869        6.9948718730       27.5216717676
  C         8.5336177830        6.0083759937       26.0889767728
  H        10.4450890740        5.0086505484       25.6523547928
  H         9.6409784718        4.2396339308       26.7825400744
  C         7.4256379016        5.1658137469       25.5325207856
  H         8.2699693665        6.7408766372       26.9139689778
  H         8.9246377613        6.6826621151       25.3088627973
  C         7.0943468133        3.8748513521       26.2329233541
  C         7.8041626214        4.4880265304       24.2920122551
  C         6.2241222974        6.0974232617       25.3395797374
  C         7.3467567747        2.7168796259       25.4595400899
  C         6.6712594458        3.5861932010       27.5291762710
  C         7.8221305370        3.1263319120       24.2302675819
  C         8.2912132786        5.1534114387       23.1755246069
  H         6.4713262453        6.8273245320       24.5790042212
  H         5.8833117993        6.6425578554       26.2121054408
  C         4.9543958318        5.3530891615       24.9310192897
  S         6.9968716147        1.2222487818       26.1894173694
  C         6.5179273891        2.1880716789       27.6495699608
  H         6.4302707965        4.4096452339       28.2195147005
  C         8.1599406523        2.5190104500       23.0865103751
  H         8.3950248948        6.2106632548       23.1707189130
  C         8.7201008175        4.5594507354       22.0128694398
  H         4.9953171278        5.0643317473       23.9092999557
  H         4.7363549892        4.4879204040       25.6069327834
  C         3.7115775971        6.2423926926       24.9388821745
  C         6.0617497288        1.5079113285       28.9628373730
  C         8.6647757333        3.2024697835       21.9211118670
  H         8.1868989438        1.3970401943       23.0392319049
  C         9.0772165598        4.9888288196       20.7314764372
  H         2.9534454886        5.9676592518       24.1919711114
  H         4.1021616787        7.2297628036       24.6475210616
  C         3.0887047183        6.4995684500       26.3085918816
  C         6.0616911300        0.1572551544       29.2807360483
  C         5.4920404414        2.3128031214       30.0015753121
  C         8.9914561336        2.5193888297       20.6757784186
  C         9.1411860676        3.8948456211       19.9384770683
  S         9.2396732987        6.4843126297       19.9270572586
  H         2.4370747662        7.3995326850       26.3174511011
  H         3.9302038605        6.7521897940       26.9589619207
  C         2.2373330477        5.3182426486       26.8823081058
  N         6.6228394712       -0.7697595403       28.4582743917
  C         5.6480267329       -0.4243550275       30.5027055245
  C         5.0319406326        1.7845373837       31.2259043003
  H         5.4469785220        3.3490512243       29.7446053539
  C         7.8544823483        1.7407042489       20.0261580694
  C        10.3377617652        1.7612660538       20.6720802203
  C         9.5441654751        4.2828447619       18.5968265511
  C         9.5779950108        5.6461886168       18.4296314794
  H         1.2911846199        5.0993996476       26.3364736552
  H         2.7098253893        4.3988360943       26.5235564146
  C         2.0890453452        5.3232542655       28.4055095059
  S         6.4794491392       -2.2935233039       29.1152030319
  N         6.0361176780       -1.7947671001       30.6144661861
  C         5.0804842620        0.3602316219       31.5322173936
  H         4.6003959091        2.4082584031       31.9578795637
  H         7.6765299765        0.7470027854       20.4226710711
  H         8.2255251523        1.4558905739       19.0749895834
  C         6.6126606265        2.6190985384       19.6900771620
  H        10.6421212112        1.4881034291       19.6414704878
  H        10.2829143781        0.8365499699       21.2240041833
  C        11.5534805240        2.5749160111       21.0422424988
  H         9.8511134337        3.4852419906       17.9193619355
  C         9.8915646187        6.4324720823       17.1392043350
  H         1.3827135060        4.5704105104       28.5580018690
  H         1.6997332600        6.2752682123       28.6188400242
  C         3.3337454189        5.0048982394       29.1755127801
  C         4.8791849837       -0.2045868184       32.8070524303
  H         6.8308362383        3.4187979131       18.9373155131
  H         6.2998228269        3.0995457516       20.6200045228
  C         5.5341516364        1.8290833106       19.0446631354
  H        11.2338242445        3.2303761557       21.8494086403
  H        11.9118712474        3.2348188284       20.2651910254
  C        12.6843048339        1.7512448031       21.6466758537
  C        10.0237189936        7.7996651466       17.0283411719
  C        10.0716138606        5.6621878208       15.8894406693
  H         3.6519326230        4.0264838304       29.0314182718
  H         4.0723509431        5.7469202436       28.8959600709
  C         3.1690677931        5.1352997193       30.7027550455
  H         4.7185042415       -1.2369538752       32.6217269237
  C         4.7802485982        0.2632285302       34.0940768421
  H         5.2029106748        1.0341713870       19.7188114296
  H         5.9322368491        1.5368225272       18.0675359885
  C         4.2278725135        2.7385842153       18.8037848458
  H        12.4320417776        1.3505580687       22.6721696626
  H        12.8647738737        0.8460336237       20.9858775091
  C        14.0039016771        2.5865137658       21.6114215175
  N         9.8185669482        8.7398780187       18.0434159378
  C        10.3806887046        8.4640274188       15.8559686736
  C        10.5042484469        6.2720700922       14.7451647021
  H         9.8498383891        4.5361893402       15.8869112686
  H         3.0535745638        6.1083829776       31.0975976701
  H         2.2746601205        4.5951641289       31.1103692917
  H         4.0260927696        4.7526459303       31.2303840851
  S         4.6643232315        1.8956313108       34.5681709812
  C         4.6550287803       -0.7580792703       35.1932211889
  H         3.6319098176        2.9722284547       19.7054376611
  H         4.3789471541        3.6916306414       18.3425585375
  C         3.3457140677        2.1130138637       17.6885690686
  H        13.8719716080        3.6150118705       22.0064446399
  H        14.2783978396        2.8149314710       20.5817550372
  C        15.2130226651        1.7623277265       22.1937929370
  S         9.7377081356       10.2371644903       17.3522998391
  N        10.2760420403        9.8834507302       15.8769323806
  C        10.6528733496        7.7708699442       14.6402849822
  H        10.6404102242        5.6246981499       13.9504396703
  C         4.0913646119        1.2053289535       36.0889512513
  N         4.2327599426       -0.1339553579       36.2741210296
  O         4.9471459065       -1.9563613831       35.0691818840
  H         3.9637987727        1.6612217167       16.9992036324
  H         2.7582878681        2.8274142306       17.1043978464
  C         2.3952141633        1.0438936168       18.2706233583
  H        15.0155259591        1.5713827734       23.2533267899
  H        15.2692829915        0.8352944666       21.6447006708
  C        16.4712664009        2.6017306263       22.0345850267
  C        10.9372676034        8.4428505747       13.4411058098
  S         3.6398928417        2.0507867664       37.5991602588
  C         3.9682426158       -0.9595941556       37.4558329595
  H         2.9019405597        0.2033211764       18.8163922519
  H         1.6985750931        1.5231905839       18.9199949732
  C         1.4581567637        0.4491288868       17.2420136419
  H        16.1445318637        3.6372630452       22.0450326707
  H        16.7406177167        2.6475614936       20.9717993591
  C        17.7372765933        2.3316267844       22.8020442605
  H        10.8026289994        9.4904967984       13.4357101719
  C        11.4135543509        7.9819364537       12.2359047839
  H         3.1838738710       -0.4618218475       38.0131539885
  H         3.5586964711       -1.9319257711       37.1224137826
  C         5.2795141068       -1.2692176930       38.2171683786
  H         1.0202297711        1.2808499422       16.7664777668
  H         0.7367386643       -0.0989828623       17.9111900318
  C         2.1945305714       -0.4394116871       16.1596683175
  H        18.1911168538        1.3823100133       22.4105605158
  H        18.4641905087        3.0481242222       22.4749997362
  C        17.5068294947        2.1890778567       24.2545803610
  S        12.0116661346        6.4656192530       11.9482453881
  C        11.4478789491        9.0164147133       11.1154311873
  H         5.8699651185       -2.1575443949       37.9515214424
  H         5.9641559859       -0.4327374362       38.0265351033
  H         5.1168841385       -1.3174665838       39.3134651505
  H         2.8476210133        0.1026754621       15.4544603689
  H         1.5177139272       -1.1279917562       15.5921664127
  H         2.8821536259       -1.0567315822       16.7493611521
  H        18.4035514364        2.3608910208       24.9203857008
  H        17.1271981023        1.2095896822       24.3830145075
  H        16.7835305361        2.8429648656       24.6272738666
  C        12.2814117764        7.0684386456       10.2644064944
  N        12.0681058598        8.4243816623       10.0732676970
  O        11.2352435049       10.2401383281       11.2452332478
  S        13.2365665730        6.1105457506        9.1350978311
  C        12.4389331575        9.0470075459        8.8558097591
  H        12.6843682010       10.0539506983        8.9954050355
  H        13.3278125179        8.6540055281        8.3700849196
  C        11.2588293841        9.0755923737        7.9361056640
  H        10.3070924528        8.7340226658        8.4118044781
  H        10.9912277255       10.0987725175        7.6496951251
  H        11.4506704965        8.4450226943        7.0935962190
  H         2.3776493456        3.7772990337       12.3687790914
  C         2.7333887107        2.8748757797       12.7923687530
  H         2.1539018773        2.1021515108       12.3858146754
  C         4.1732449654        2.6677216822       12.3096141023
  C         2.5051430249        2.8602742887       14.2608701992
  C         4.3080507727        2.9369278038       10.7753140303
  H         4.5143159083        1.6462828889       12.5525632549
  H         4.9085439101        3.2925038841       12.8728926953
  H         2.1247928727        3.7839485640       14.5865574090
  H         3.4847925206        2.7881998734       14.7388817661
  H         1.8796495695        2.0576178474       14.5568133995
  C         4.7302951391        1.6668132112        9.9999727055
  H         3.4294093582        3.3144898487       10.3036535763
  H         5.1118303410        3.5942240823       10.5414243648
  C         5.3274692745        1.8030618305        8.5775455708
  H         3.7973123784        1.0267226460        9.9862020470
  H         5.4771110993        1.1507238494       10.6967341076
  C         6.6402086467        2.6152498065        8.5443799905
  H         4.5651596990        2.1984218676        7.9279536994
  H         5.5843353906        0.7627827523        8.3188438829
  C         7.7755260225        1.8964892259        9.1832539161
  H         6.8573213321        2.6740821838        7.5400458465
  H         6.4878694184        3.6432030172        8.8756756683
  C         9.0852254043        2.7248139096        9.2443625185
  H         8.0129425715        1.0881893121        8.4564442989
  H         7.5957451053        1.4292607737       10.1451623454
  C         8.7098598401        4.0653218503        9.8903801387
  C         9.4367446888        3.4254221900        7.9756708409
  C        10.2551478912        2.0542054821        9.9257169363
  C         8.8350556536        5.1395110513        9.0562213094
  C         8.1705342902        4.4597110486       11.1247320615
  C         9.3998826351        4.7565199915        7.8450478500
  C         9.9421630581        2.7395772504        6.8297430486
  H         9.8748169876        1.5297858638       10.8494438560
  H        10.5089481987        1.1908347061        9.3248667676
  C        11.4160182488        2.9605763711       10.2014311520
  S         8.3504122944        6.6862741988        9.6691302868
  C         7.9830103295        5.8330413629       11.2049407766
  H         7.8745140567        3.6905639479       11.8555560364
  C         9.8941009804        5.3665952433        6.6863872572
  H         9.9922274095        1.6978239426        6.8725725561
  C        10.3769273158        3.3153677721        5.6572860626
  H        11.0829871768        3.9096857690       10.7338331352
  H        11.9001421870        3.1258133947        9.2126423691
  C        12.4620072574        2.2672717789       11.0974414054
  C         7.4565916026        6.5789538072       12.3668685385
  C        10.4882262292        4.6730124591        5.6128963162
  H         9.7702029204        6.4343735636        6.5074254755
  C        10.8769739924        2.8991149203        4.4420424762
  H        13.3528958846        2.7170060433       10.6388363441
  H        12.4496205071        1.2538026801       11.0702166788
  C        12.3114494754        2.6927287318       12.6208412729
  C         7.7080739251        7.9433579862       12.6540901777
  C         6.9578822576        5.7117970684       13.5020003579
  C        10.9977703096        5.3500033918        4.3697822725
  C        11.1840530099        3.9904717289        3.6910444071
  S        11.2399420400        1.3596013653        3.7562513708
  H        12.5392600302        3.7181740580       12.7437933931
  H        11.3063818793        2.6215995588       12.9326898669
  C        13.2784503786        1.9447911166       13.5044826189
  N         8.2263293761        8.8844824085       11.7792388111
  C         7.4107326322        8.4740979425       13.9193623516
  C         6.8591371238        6.2780721298       14.7599436256
  H         6.7579535332        4.7332797764       13.3889687453
  C        12.3282705339        6.0810343474        4.5713944062
  C         9.9705728415        6.3057568373        3.6639396384
  C        11.6592325255        3.5399105547        2.4181554073
  C        11.5709678166        2.1876909353        2.3251710002
  H        14.3007607418        2.3181120000       13.4227200383
  H        13.3872393452        0.9547829055       13.2434951073
  C        12.8884563840        2.0537484263       14.9981329031
  S         8.1772029736       10.3227972613       12.5524891889
  N         7.5811469978        9.8289627019       13.9616720883
  C         7.0830427250        7.6857021813       15.0617114525
  H         6.6672259729        5.6066952576       15.5778193729
  H        12.1687899268        6.8064848939        5.3983342601
  H        12.4738215810        6.5167770570        3.5616194205
  C        13.5826921814        5.2594949092        4.7764634947
  H         9.7102612641        7.1567166353        4.2427976871
  H        10.2718374837        6.7912974375        2.7460200006
  C         8.6945156499        5.5706444357        3.2793954261
  H        11.8824768466        4.2429268863        1.6168286600
  C        11.9274453671        1.3881954673        1.1399318762
  H        12.4487905816        3.0777263007       14.9453671009
  H        11.9938293041        1.5225008050       15.2954258560
  C        13.9985075799        2.2191335822       16.0511152565
  C         6.7839783485        8.2924748860       16.2826047023
  H        13.3469920596        4.5598522150        5.5567535567
  H        13.6902013054        4.6505669202        3.8798498962
  C        14.7979434024        6.1276283057        5.0986866831
  H         8.3846841561        5.1869964540        4.2546876322
  H         9.0076174342        4.8545912526        2.5546084471
  C         7.6010432505        6.4567859491        2.6909491918
  C        11.9791953035       -0.0158139627        0.9694362332
  C        12.1385402495        2.1354021454       -0.1131738933
  H        14.8964244870        2.7441624540       15.8031061425
  H        14.3336818398        1.2129067457       16.4012955299
  C        13.4129650179        2.9562632979       17.2249455574
  H         6.7966398042        9.3548961806       16.2343631921
  C         6.3948889116        7.8929406928       17.5294758462
  H        14.4857795483        6.7592903132        5.9148995442
  H        15.0573880604        6.7231908105        4.2657984552
  C        15.9959366857        5.1795105099        5.5971156312
  H         7.2106799308        7.0644817609        3.4838409266
  H         7.9493691754        7.2030170718        1.9662384340
  C         6.4169207928        5.5974554296        2.0917240224
  N        11.6616562657       -0.9151284092        1.9599520900
  C        12.2375952315       -0.6693307451       -0.2177018873
  C        12.4066511506        1.5249606046       -1.3480982588
  H        12.1173232531        3.2430749697       -0.1417593624
  H        12.4901849136        3.5258501711       17.0663200320
  H        14.0855547072        3.6460649147       17.6473876528
  H        13.1662634483        2.1858318876       17.9472147725
  S         6.0594542957        6.2647077350       18.0350152063
  C         6.2285554637        8.8720425097       18.6328917376
  H        15.6145153881        4.3011114947        6.0828581755
  H        16.5264410459        4.7571601001        4.7092774230
  C        16.9117485701        6.0390860488        6.4978969299
  H         6.3475468348        4.5896129068        2.5117265395
  H         6.6503814993        5.4147574788        1.0682562066
  C         5.1265968972        6.4051985716        2.0193322698
  S        11.8286007332       -2.4550330005        1.3935856862
  N        12.1649716969       -2.0761111664       -0.1319309417
  C        12.5386165340        0.0176466810       -1.4878430639
  H        12.5240105086        2.1108691767       -2.2560878623
  C         5.7918771983        6.9018095999       19.6663160871
  N         5.8134660959        8.2275136283       19.7780671482
  O         6.5982219627       10.0868726707       18.5093573987
  H        17.3062940711        6.9303210871        5.9285513188
  H        16.3457183245        6.4349821333        7.3440920396
  C        18.0109275056        5.2462130139        7.1178632419
  H         4.2563435678        5.8908061784        1.7019395289
  H         4.8434246306        6.7958942045        3.0600950385
  C         5.2392204815        7.6216028400        1.1070900776
  C        12.7696218770       -0.6267396899       -2.7308558112
  S         5.3810116783        6.0090667025       21.0820189919
  C         5.7388116491        8.9525919640       21.0078089723
  H        17.6159562560        4.6855605819        7.9359845131
  H        18.4532521420        4.4408896289        6.5713326315
  C        19.1267716666        6.1723126628        7.5443892668
  H         4.8774378271        7.2097624060        0.1268700062
  H         6.2641167143        7.9133358290        0.9588919328
  C         4.2823575578        8.8326657930        1.5059011204
  H        12.5457162756       -1.7089100757       -2.6719471030
  C        13.2111342384       -0.1855003610       -3.9674273263
  H         4.9958186020        8.5582293284       21.6796108729
  H         5.2981197451        9.9328814849       20.8115100123
  C         7.0518424707        9.1954353750       21.6253931278
  H        19.5437465791        5.6760050833        8.4078089394
  H        18.7431606211        7.1680188706        7.8234764258
  C        20.1624282911        6.3444624854        6.4540598371
  H         4.2904682252        9.6743971308        0.8452580641
  H         3.2255133206        8.5943185712        1.4562119383
  C         4.6456499498        9.4911652242        2.8044229134
  S        13.8717756490        1.4097766877       -4.2351560946
  C        13.3841147322       -1.2074243360       -4.9749036216
  H         7.8544764271        9.0815449227       20.8988549305
  H         7.1592161910        8.5157191027       22.4962449880
  H         7.2093815228       10.1818002069       21.9996044620
  H        19.7545287271        6.8465710250        5.5246586444
  H        20.9255547364        6.9731929459        6.8530134277
  H        20.6777022674        5.4658588719        6.1145021471
  H         4.6268988292       10.6402795182        2.7257634686
  H         4.1076936644        9.0650113092        3.6480716103
  H         5.7082924634        9.3536188126        2.9601955778
  C        14.1417786352        0.7538952960       -5.8499380852
  N        14.0599784988       -0.6359044330       -6.0030625419
  O        13.2078151414       -2.3911248592       -4.8709425567
  S        15.0397315877        1.6113388177       -7.1388818384
  C        14.2825736903       -1.4829184572       -7.1699962675
  H        14.5472875562       -2.4766795307       -6.8770422335
  H        15.1152885767       -0.9878858414       -7.6814367910
  C        13.0290389539       -1.4110497457       -8.1236557258
  H        12.2051266520       -1.8226387841       -7.5739976925
  H        13.1775107469       -1.9613929911       -9.0760070355
  H        12.7671606139       -0.3950279330       -8.3672831077
