352
 i =    83200, time =    41600.000, E =        99.2221122951
  H        12.3946243156        6.6181391366       32.4761538246
  C        12.0354142589        5.6057623282       32.3945198571
  H        12.9928911765        5.0010737739       32.1619506680
  C        10.8695661557        5.6840660191       31.3595722048
  C        11.6502728181        5.0810378634       33.7920494499
  C        11.4768560163        6.0004498892       29.9242151756
  H        10.3205273281        4.7230761318       31.2286599975
  H        10.1266950881        6.3801007966       31.5698645161
  H        11.0043267334        4.1803248922       33.7762597164
  H        12.5122313450        4.8549240515       34.3606397736
  H        11.0385867206        5.8352901177       34.3514128015
  C        10.3625563834        5.8181897964       28.8396634501
  H        12.1854746555        5.2564013669       29.6189761428
  H        11.9751719402        7.0030968398       29.7918236439
  C        10.8103226822        5.5955700192       27.4402018398
  H         9.4482128663        5.2647757374       29.1250721908
  H         9.9048993179        6.8344839967       28.6664969526
  C         9.6800576563        4.9173395403       26.6646642306
  H        11.6848682473        4.9043756394       27.4476899617
  H        11.1262791100        6.4936600195       26.9702150838
  C         8.5104394313        5.8274442535       26.3372788630
  H        10.0406642991        4.6131202276       25.6575599131
  H         9.4031493986        3.9862648878       27.0441544134
  C         7.3155634677        5.0519370019       25.7104889612
  H         8.1734096323        6.2306492647       27.2913036436
  H         8.8053946127        6.6520377795       25.7073919419
  C         6.9960781176        3.7563023896       26.3726014206
  C         7.7482930563        4.4199305270       24.3995420014
  C         6.0887845580        6.0037450349       25.5053743779
  C         7.0982673770        2.6967826475       25.4646236000
  C         6.5095942552        3.3086672474       27.6100847234
  C         7.6370348455        3.0750107736       24.2461624978
  C         8.0817602671        5.1011684998       23.1810637114
  H         6.4399950553        6.9160083953       24.9427858571
  H         5.7113184438        6.3716895188       26.4658447045
  C         4.8361910927        5.2868508336       24.8316779156
  S         6.5360575945        1.2069167421       26.1302904745
  C         6.3038123671        1.9908327129       27.6509902209
  H         6.2317089544        4.0846625002       28.3462810482
  C         7.9338176666        2.4675449468       23.0793689082
  H         8.0879674692        6.1343485709       23.2408684275
  C         8.4633371619        4.4602961860       22.0417857717
  H         5.2546786792        4.9931721467       23.8203540750
  H         4.6139049224        4.4117268205       25.4356669396
  C         3.5688998813        6.1591411486       24.7028084426
  C         5.8172415891        1.2143749267       28.7960876998
  C         8.4451062647        3.0814720749       21.9109112118
  H         7.9970758004        1.4136248074       23.0457401294
  C         8.9729644246        4.8512045315       20.8052567975
  H         2.8207121850        5.7066004739       24.0295463492
  H         3.6463078115        7.1189098122       24.1931530778
  C         2.9048343126        6.3244224905       26.0970003344
  C         5.9495176101       -0.1937378264       29.0084338329
  C         5.2872119695        2.0280550808       29.9510860418
  C         8.8246487242        2.3798131384       20.6289832005
  C         9.2012495705        3.7725780633       19.9657971701
  S         9.2749237532        6.3856206180       20.0734610535
  H         2.2830958162        7.1809967147       26.0705057005
  H         3.7653809917        6.5370060232       26.7825571369
  C         2.1959151229        5.0305823541       26.5141734166
  N         6.4337113941       -1.0389038932       28.0365174303
  C         5.4895326497       -0.7147139361       30.2351324227
  C         4.8808227632        1.4828199065       31.1327207320
  H         5.1545573890        3.1016346178       29.7894992895
  C         7.6413962435        1.7834026035       19.8848658494
  C        10.0145924508        1.4406992077       20.8219727942
  C         9.5900702415        4.2263012520       18.7017915485
  C         9.7768342578        5.5846744123       18.5792568127
  H         1.5060974220        4.7470348097       25.7311224268
  H         2.8487871972        4.1141064369       26.5197611518
  C         1.4533435705        5.1087440131       27.8719767988
  S         6.3335335094       -2.5037745459       28.7023495846
  N         5.7378221009       -2.0445547607       30.1704165009
  C         5.0142721748        0.0179880512       31.3355441672
  H         4.6118656538        2.1745028741       31.9079491426
  H         7.2265000948        0.9184905610       20.4538734920
  H         7.8669041346        1.3803960172       18.8691993955
  C         6.4032667734        2.6636626094       19.8083601704
  H        10.1524735554        1.0491318095       19.8831810421
  H         9.8240955054        0.5930941024       21.4278030175
  C        11.3150597765        2.1376748582       21.2495024264
  H         9.7758948560        3.4612491306       17.9583979989
  C        10.0133787603        6.4258327540       17.3658928438
  H         0.8615723296        4.2297425447       28.0885332560
  H         0.7709652070        5.9448758965       27.7052412865
  C         2.3217697862        5.3984604151       29.1083131269
  C         4.7516127409       -0.6389063748       32.5879377914
  H         6.7284278937        3.6880024245       19.6386004921
  H         5.6925377856        2.7045090027       20.6906608057
  C         5.5809132274        2.4501169173       18.5079528038
  H        11.1835130539        2.5100656811       22.2147109444
  H        11.4502192235        3.0668016135       20.6763177441
  C        12.5565724618        1.3055333902       21.1465586820
  C        10.0355318449        7.8398691138       17.2202803089
  C        10.2230417658        5.6096297619       16.0705406580
  H         3.0628377492        4.5392394849       29.1347879094
  H         2.7817258373        6.3771964306       29.0017898030
  C         1.4705257872        5.2009176527       30.3545037134
  H         4.7939012348       -1.6889505078       32.4679888192
  C         4.5903625590       -0.2651012023       33.8887946033
  H         5.8186601730        1.4802591867       18.1262170372
  H         5.7645388356        3.3049900069       17.8002552528
  C         4.1041235606        2.2520491295       18.6630563088
  H        12.3974252535        0.5389309242       21.9191461017
  H        12.5258694308        0.6833469648       20.2492856675
  C        13.8889246158        2.0506666024       21.3069737421
  N         9.8722276261        8.7006220025       18.2982667997
  C        10.2696791955        8.4528387137       16.0308819458
  C        10.4671648502        6.2714483713       14.8567084790
  H        10.4287359340        4.5723825350       16.1179733897
  H         0.5877178502        4.5692793166       30.1437250457
  H         1.9585738925        4.7232700259       31.2305783923
  H         1.0564158780        6.1392525808       30.6604978810
  S         4.2893186462        1.3080840332       34.4497320071
  C         4.5140059821       -1.3550735394       34.9499842040
  H         3.7562184630        2.6005418499       19.6253470667
  H         3.5417721839        2.7048276296       17.9053208538
  C         3.9009235142        0.7299977879       18.6194375042
  H        13.9810252375        2.9023331983       20.6550220683
  H        14.6847646863        1.5035049623       21.0033300757
  C        14.1672504184        2.5134581627       22.7209660722
  S        10.1066271429       10.2499446513       17.7860891756
  N        10.2977422362        9.8526586605       16.1964887438
  C        10.5454697585        7.7644848387       14.8237800157
  H        10.3488561252        5.5840670547       13.9855107541
  C         3.9589763467        0.5294310218       36.0126208905
  N         4.0515914971       -0.8495902659       36.0866891669
  O         4.6485790276       -2.5738109230       34.6795179833
  H         4.4200284514        0.3496918994       19.4806412461
  H         4.2545793748        0.2231059573       17.7583665312
  C         2.4287377909        0.4331046826       18.7005723211
  H        13.2384918268        3.0643050096       22.9465749739
  H        14.1962408958        1.6604787533       23.4307748632
  C        15.3702904618        3.4652960170       23.0271365087
  C        10.7200790940        8.5080826271       13.6678762618
  S         3.6119457874        1.5127491847       37.4419613033
  C         3.9568444319       -1.5397363146       37.3241572843
  H         2.0251428359        1.0443524292       19.4857224099
  H         2.0743360691        0.5832148794       17.7333073552
  C         2.1261078671       -1.0360676231       19.0753734356
  H        15.3010407921        3.8902023963       24.0387789801
  H        15.2821743729        4.3700662203       22.4779624941
  C        16.7656366185        2.8471232551       22.7404110186
  H        10.4386936524        9.5041444019       13.7173867263
  C        11.1976583332        8.2542784808       12.4063583519
  H         3.1603779858       -1.0424251595       37.9472245800
  H         3.4942673764       -2.5322105590       37.2143197348
  C         5.2486598870       -1.5625140244       38.1056722301
  H         1.0471950007       -0.9967715032       19.2224065136
  H         2.5927327153       -1.2091370448       20.0619248551
  C         2.4706457425       -2.0813656195       18.0097290721
  H        16.7103384794        2.0470072832       21.9656087939
  H        17.4912918493        3.6077136229       22.3972228665
  C        17.4238541100        2.0891100585       23.9801378138
  S        11.7814103071        6.7444186224       11.7580002883
  C        11.2765644825        9.3318372113       11.3988499185
  H         5.3539551405       -2.4221160731       38.6999344407
  H         6.1128371383       -1.5352380440       37.4459083895
  H         5.3341782940       -0.6751044262       38.7205614843
  H         2.1872228837       -1.6432143239       17.0707314486
  H         1.9563267049       -3.0072557440       18.2755743478
  H         3.4683506704       -2.4587637111       17.9488271681
  H        17.5345567364        2.7858423539       24.7700458406
  H        18.4561421452        1.7649112973       23.8333903544
  H        16.8279294843        1.1877166908       24.1990091987
  C        12.0552431275        7.5419555747       10.2418198325
  N        11.7780615728        8.8705846870       10.2826244363
  O        10.8018413871       10.4288924031       11.5326192082
  S        12.3468716817        6.6446391230        8.7693164856
  C        11.7581355833        9.6800562807        9.1270309462
  H        11.7058455212       10.6755728954        9.3941558035
  H        12.7229241381        9.4500711746        8.6225283614
  C        10.5362321662        9.3454571709        8.2475253689
  H        10.2691258462       10.1781702250        7.6687317199
  H        10.7960682398        8.5202108501        7.4969702569
  H         9.6880987392        9.0071721145        8.7881871264
  H         1.7915924744        0.8827921796       12.4096983722
  C         2.8144416512        1.3805272126       12.5628286477
  H         3.5632122162        0.5858492143       12.3508906200
  C         2.9994268891        2.4081020066       11.3832969220
  C         2.9218622027        1.9467087915       13.9941371913
  C         4.4371741504        2.4240577685       10.7280252979
  H         2.6953516941        3.3665461144       11.6703213534
  H         2.2594063477        2.1993564515       10.6686484322
  H         2.6082208966        1.0636544758       14.6429913409
  H         2.1479713896        2.6859116112       14.1939142681
  H         3.8968108968        2.4085154087       14.1593639263
  C         4.9725394887        1.1013610789       10.1393069149
  H         4.3934035861        3.1178394919        9.8582077132
  H         5.2286044696        2.7364396432       11.4409503500
  C         5.7935946683        1.2980451317        8.8579788405
  H         4.2228649392        0.3688732421        9.9092952475
  H         5.6331055598        0.6223335147       10.8234771368
  C         6.9401776228        2.2369002348        8.9925519369
  H         5.2071611459        1.8538098641        8.1683163526
  H         6.0913345387        0.3506281421        8.4495043797
  C         8.1437466286        1.7491134695        9.7461705029
  H         7.1477121800        2.3984252359        7.9318404138
  H         6.5990944169        3.1423163147        9.3913458646
  C         9.3901461672        2.6985518568        9.6927690285
  H         8.3964497641        0.7284505369        9.3644685969
  H         7.9315332337        1.6291711891       10.7375984468
  C         8.9900475806        4.0293162345       10.2780299326
  C         9.5937761046        3.3598500462        8.3058522615
  C        10.6583554486        2.1079489418       10.4312338976
  C         9.0182060260        5.0859908230        9.3861442829
  C         8.4042645505        4.4001502751       11.5224937893
  C         9.4526194891        4.6979670602        8.1278113261
  C        10.0046733642        2.7505875494        7.1386062520
  H        10.3109689449        1.5278882216       11.2977766953
  H        11.1382293405        1.5276743357        9.6157979184
  C        11.7066783770        3.1202028412       10.7480772747
  S         8.4331773002        6.5551986079       10.0496249728
  C         8.0845943576        5.7740714274       11.5529575938
  H         8.2205244893        3.6255970759       12.2280205403
  C         9.7525624107        5.3174510958        6.9487475940
  H        10.3107892241        1.7178690463        7.2350921847
  C        10.3630375605        3.3598777707        5.9737404669
  H        11.3296714464        3.8783846161       11.3376756303
  H        12.1999981098        3.6601905111        9.8458758287
  C        12.8387644244        2.5714585059       11.5465134076
  C         7.5061438790        6.5169774011       12.7094950834
  C        10.3389527425        4.7006052384        5.8185969313
  H         9.6392190774        6.3922008945        6.9920019177
  C        10.8955255302        2.9564611587        4.7543202764
  H        13.4038244119        3.3482350055       11.9137216966
  H        13.4203708478        1.9169250642       10.9238154933
  C        12.3107475851        1.8742496973       12.8024605621
  C         7.6028574316        7.9231501560       12.9128143814
  C         7.0274566938        5.7541632022       13.9781517243
  C        10.7737489298        5.3510945608        4.5392796871
  C        11.0422684382        3.9866512034        3.8640407259
  S        11.3986027639        1.4751033822        4.0093986765
  H        11.8745826180        0.9676488009       12.5109805191
  H        13.2554220987        1.7008247471       13.3319041998
  C        11.4240984001        2.7165698460       13.7583110199
  N         7.8148050908        8.8507031254       11.8808723951
  C         7.3831365764        8.5302341701       14.1126285139
  C         6.7811488816        6.4276993404       15.1696691148
  H         6.9346364495        4.7011379677       13.9746250542
  C        12.0422430089        6.2385931316        4.5931773358
  C         9.5937637872        6.1505958688        3.8684729878
  C        11.5407807683        3.6256408550        2.5588108507
  C        11.6820558611        2.2413864315        2.4983218432
  H        10.3811347127        2.9090390100       13.5506233752
  H        11.8584261326        3.7338409103       13.9208711791
  C        11.5899829721        2.0766863181       15.0961987676
  S         7.7901332799       10.3417233161       12.4547116724
  N         7.4567221259        9.9598431993       14.0314929549
  C         6.9750527645        7.8569820107       15.2822864253
  H         6.3080000158        5.9149693185       15.9907174621
  H        11.8112708251        7.1234630261        5.1353324742
  H        12.2629453636        6.5205388819        3.5669776240
  C        13.2381629070        5.6279492068        5.3297672536
  H         9.0338480579        6.8514633997        4.5490743715
  H        10.1691997505        6.8550344315        3.2130761118
  C         8.5723992874        5.3042507388        3.0934213198
  H        11.5532432917        4.3995849479        1.7873281119
  C        12.0254830934        1.5221539927        1.2149485785
  H        10.7205166531        2.2176679846       15.6237992363
  H        11.8024764264        1.0424738810       14.9696468196
  C        12.7541908651        2.7489607537       15.8678263995
  C         6.8769754341        8.7067248193       16.4401999204
  H        12.9097600808        5.1135083603        6.1603921510
  H        13.6878525251        4.8066763131        4.7070022255
  C        14.3399971752        6.5652093131        5.7047657275
  H         8.0404073487        4.5452430323        3.5977201390
  H         9.0169641475        4.7366987758        2.2849404853
  C         7.6044000292        6.2866125365        2.3956641095
  C        12.0472220727        0.1121119175        1.1001504399
  C        12.2917016033        2.2613951123       -0.0454683124
  H        12.5571008221        3.8186544984       15.8474360656
  H        13.5786058897        2.5539763851       15.2234085201
  C        12.7770059755        2.3903429887       17.3626614643
  H         6.9708654118        9.7786194201       16.3494682781
  C         6.5527420774        8.4454074005       17.7965510263
  H        13.8956770978        7.4215179581        6.2166878047
  H        14.7652459182        6.8844519627        4.7345636143
  C        15.3934103159        6.1145173395        6.6446304044
  H         7.1538521006        7.0874600907        3.0690694437
  H         8.2235674478        6.9680606148        1.7924547713
  C         6.4874939196        5.6949756458        1.5189851213
  N        11.8171248745       -0.8202213885        2.1236643393
  C        12.3982177141       -0.4779999742       -0.1114284651
  C        12.6423316465        1.6115323857       -1.2325180196
  H        12.3384201740        3.3146925556       -0.0033777337
  H        12.1258052244        3.1321905208       17.9739957977
  H        13.8111678567        2.4739478955       17.6263711028
  H        12.3797679805        1.3507817110       17.4720298409
  S         6.2257126745        6.9111314986       18.4688268802
  C         6.4968414564        9.5441710806       18.7487358182
  H        15.8355802526        6.9929759749        7.1025904565
  H        14.9228955223        5.5707453302        7.4821278405
  C        16.4718071567        5.3735090139        5.8577083693
  H         6.5416095106        4.5923985184        1.4598302604
  H         6.5981154601        6.0540335094        0.4409014679
  C         5.1170524862        5.9643861432        2.1347779899
  S        11.9164810877       -2.3254438443        1.5044264915
  N        12.2931637753       -1.8383885764       -0.0407511191
  C        12.7344832076        0.1314251592       -1.3673091268
  H        12.9708838190        2.2143151120       -2.1237207528
  C         6.1742646304        7.6579492186       20.0855199917
  N         6.3173929943        8.9742172533       20.0220792666
  O         6.6727025365       10.7421292777       18.4792566928
  H        15.9351203777        4.4941076880        5.3608562656
  H        16.9450054189        6.0512337158        5.0957979010
  C        17.5046709509        4.7433034484        6.8036982613
  H         4.3522907758        5.4921397184        1.4713432136
  H         5.0821226264        5.5837274964        3.1207570189
  C         4.6993367378        7.4215083492        2.2234230770
  C        12.9722841502       -0.6405707425       -2.5559924829
  S         5.8551493431        6.9105946342       21.5395016220
  C         6.4186972749        9.7952577465       21.2172010860
  H        16.9327783569        4.5469984129        7.6919088172
  H        17.8048095532        3.7767823727        6.4235927818
  C        18.6749573517        5.6476365945        7.0846483705
  H         4.9933961250        7.8020871926        3.1411981864
  H         3.6632365054        7.4755672247        2.3089173435
  C         5.0865314967        8.1880429604        0.9875726871
  H        12.5502763371       -1.6438740303       -2.4625316858
  C        13.1958430568       -0.2656690907       -3.8343428028
  H         5.7652700481        9.5089308447       21.9723059296
  H         6.1048195313       10.7839134743       20.9068753977
  C         7.8490537946        9.6735886721       21.8084721297
  H        19.2179775497        5.2411423735        7.9508221006
  H        18.3978268664        6.6271714248        7.4952472676
  C        19.6164891318        5.9263189227        5.8531576217
  H         6.1583850271        8.4538581681        1.0432681825
  H         4.8008227215        7.6280756663        0.1085330776
  C         4.4361303734        9.5767084183        1.0641316935
  S        13.6293239545        1.2629056135       -4.4850635954
  C        13.2143668661       -1.3197959532       -4.8877716050
  H         7.7824681283        9.1389939746       22.8009773582
  H         8.3079492165       10.6442332097       21.8608187269
  H         8.3994005603        9.0750124155       21.0046422620
  H        20.6132383488        5.4106616071        5.8958264557
  H        19.1566146126        5.3602628659        5.0761019272
  H        19.5772702243        6.8831151520        5.5166997580
  H         4.5166586484        9.9492618889        2.1271965075
  H         4.7672559056       10.3448824104        0.4195299728
  H         3.3699174468        9.4695801582        0.8741620234
  C        14.0404751043        0.4774266724       -5.9518228995
  N        13.7715050987       -0.8456555297       -6.0178092343
  O        12.9480199391       -2.4747339182       -4.8310225341
  S        14.6497671916        1.4208161366       -7.2886353617
  C        14.0618503106       -1.6419178884       -7.2969673154
  H        14.2228630115       -2.6335038933       -6.9359397942
  H        14.9518610100       -1.2984192627       -7.8134369250
  C        12.8954590028       -1.5228375401       -8.2442736977
  H        12.4578051752       -0.5303177257       -8.1301890375
  H        12.1236890803       -2.3111718050       -8.1087766245
  H        13.2217392480       -1.6274440656       -9.2811180881
