352
 i =    83800, time =    41900.000, E =        99.2796814930
  H        11.6625574148        7.0755868718       32.8140210711
  C        11.5516989413        6.0521049474       32.7296485292
  H        12.4996629755        5.6212949811       32.5997688363
  C        10.6273361686        5.7361705977       31.5735352943
  C        11.1309564822        5.4258489263       34.0591875358
  C        11.0932534440        6.2500842283       30.2512779331
  H        10.6363754635        4.5989213783       31.5165690980
  H         9.6041360667        5.9948161735       31.7505606925
  H        11.4757930837        4.4080261114       34.0837572896
  H        11.6600628107        5.9081831170       34.7924790282
  H        10.0539427197        5.4025583178       34.2325019958
  C        10.2655610350        5.5798753768       29.1670923900
  H        12.1352715119        6.2873746397       30.0903654819
  H        10.9622158890        7.2999664573       30.1196759740
  C        10.6469890221        6.0021535133       27.7351810225
  H        10.3830897036        4.5350143889       29.3869245141
  H         9.2424070161        5.8703010914       29.4090928160
  C         9.7263413954        5.3628645584       26.6898664960
  H        11.7028598305        5.6579748572       27.5179283880
  H        10.5776099236        7.0553954040       27.7295878722
  C         8.4945981394        6.1439160908       26.3822562557
  H        10.2958631356        5.1725323490       25.7365407560
  H         9.4880977267        4.4119184913       27.0605512402
  C         7.3986282500        5.4786208913       25.5773623037
  H         8.0214952067        6.5250441183       27.3039149926
  H         8.7785063826        7.0544265954       25.8170062188
  C         6.9820646440        4.1531636677       26.3183431120
  C         7.7327718783        4.7572859872       24.2895605550
  C         6.1168769271        6.3374719720       25.3778011444
  C         7.1929697421        3.0532787586       25.5734538825
  C         6.5676506914        3.8078898427       27.5761818995
  C         7.6534060683        3.4271052281       24.3250923464
  C         8.1092982529        5.3082417140       23.0946947781
  H         6.4369186575        7.0560101910       24.5715220089
  H         5.9408338690        6.9615417106       26.2868626267
  C         4.7968478489        5.5991139216       25.0904795234
  S         6.9221423811        1.4816714805       26.3481185001
  C         6.5254583888        2.4485239850       27.7049078727
  H         6.4250027965        4.5622827242       28.3385697759
  C         7.9180182479        2.7434365322       23.1680390594
  H         8.0761144998        6.3578267402       22.9742860901
  C         8.4298319672        4.6007701544       21.9958073021
  H         4.9349738950        5.3283578260       23.9829605296
  H         4.5224870821        4.6908042686       25.7040977754
  C         3.5825061273        6.5313655496       25.1765406182
  C         6.1045275484        1.6652653284       28.9828737146
  C         8.3786880248        3.2703957176       21.9904557550
  H         7.7995684804        1.6985689898       23.3175368918
  C         8.9460609298        4.9614347539       20.7758421498
  H         2.8101662742        6.2378286498       24.4259679046
  H         3.8516080084        7.5098306955       24.7506140703
  C         2.9436486675        6.6409362228       26.6385471618
  C         6.1944642134        0.2836087913       29.1619952603
  C         5.6264085022        2.3825467044       30.1935407673
  C         8.8635283641        2.5368674947       20.7005014608
  C         9.1968086291        3.8335411574       20.0144090091
  S         9.3248741897        6.4868808027       20.0688263370
  H         2.2923785594        7.4487442212       26.6367666199
  H         3.7356554500        6.7879556610       27.4487848931
  C         2.0546726806        5.3680138737       26.9732806583
  N         6.2873796547       -0.6797692406       28.1326250687
  C         6.0061695528       -0.3703076475       30.4046908451
  C         5.2992828546        1.7977437693       31.4225218941
  H         5.4382621966        3.4636341360       30.0518358157
  C         7.7877437738        1.7569854347       19.8364653210
  C        10.0342519840        1.6008780247       21.0812535046
  C         9.4699199483        4.2270151386       18.6764392439
  C         9.5950228168        5.6240532522       18.5983721839
  H         1.5366724725        5.0879982211       26.1446067798
  H         2.7149812803        4.5749912545       27.1584869224
  C         1.1257335206        5.5969871470       28.1383204309
  S         6.2144359880       -2.1682975658       28.7564195382
  N         6.0463246194       -1.7479755592       30.3374135766
  C         5.6193654933        0.3461234555       31.6336937203
  H         4.9654390359        2.4317286841       32.2166626444
  H         7.7608250597        0.6916119314       20.0631832363
  H         8.2367273484        1.6248915996       18.8312372505
  C         6.3746560221        2.4116424269       19.7033165718
  H        10.3986460609        0.9553638111       20.2607095871
  H         9.6816628877        0.9356811604       21.9465768387
  C        11.3079120153        2.3826767641       21.5129508429
  H         9.4474782076        3.5472132564       17.9183877108
  C         9.8148438701        6.3288512171       17.3127618011
  H         0.3482586916        4.8147725296       28.2970422354
  H         0.5672429178        6.5457406006       27.8441106881
  C         1.9864507203        5.7120393578       29.3401880834
  C         5.2966668775       -0.4166120378       32.8127726672
  H         6.5053946066        3.4382667026       19.8549479171
  H         5.7493523528        2.0280512286       20.4875648471
  C         5.7894717380        2.3087847091       18.2862619118
  H        11.1698533051        2.8758932802       22.4048433461
  H        11.6252326328        3.0270997023       20.6827878609
  C        12.5392645171        1.4483826715       21.6659989697
  C        10.0346584703        7.7292817093       17.1051299038
  C         9.9171597748        5.5356250784       16.0753271920
  H         2.7205650684        4.9125193740       29.2757290028
  H         2.4610147957        6.6408414303       29.3171224521
  C         1.2616437570        5.5188669187       30.6504750164
  H         5.3961948707       -1.4925072441       32.7633517896
  C         4.8293141052       -0.1043012111       34.0281785608
  H         6.4281147557        1.6788143202       17.6708544812
  H         5.9142997976        3.3262621731       17.8155016800
  C         4.3299710208        1.9515053251       18.1898586329
  H        12.5573950758        0.9507052916       22.5879515189
  H        12.4395327724        0.6349122915       20.9173984682
  C        13.8999462349        2.1574048048       21.6086553354
  N        10.0017111607        8.7227149153       18.1449828818
  C        10.1998670839        8.2999900367       15.8968116159
  C        10.1181655192        6.0656891205       14.8141747938
  H         9.8549276217        4.4933907322       16.1435675754
  H         0.4195357561        4.7774541387       30.5999951525
  H         1.9284428147        5.2287893044       31.5102020493
  H         0.8173840596        6.4670446935       30.9382372766
  S         4.4205591884        1.5239365515       34.5467931445
  C         4.7024002066       -1.1497138174       35.1381202772
  H         3.7296239176        2.3074808472       19.0671202267
  H         3.9261515922        2.3063591215       17.2634526178
  C         4.1018028939        0.4528473181       18.1380268662
  H        13.7464898911        3.1335571452       21.0437052432
  H        14.7340355699        1.6006299959       21.1533299087
  C        14.4182683078        2.4678027852       23.0144771622
  S        10.0740167266       10.2099665586       17.4333234795
  N        10.3309094283        9.6846195497       15.9239828535
  C        10.3922657368        7.4974114665       14.6859739398
  H         9.8523620334        5.4550256151       13.9789727045
  C         4.2214994384        0.8347245777       36.1528147285
  N         4.3682031793       -0.5490323948       36.3057702308
  O         5.1563897896       -2.2959455734       35.0012801374
  H         4.1413794180        0.0961157079       19.2003390393
  H         4.8966901671       -0.0581893999       17.5223707908
  C         2.7574705921        0.0066409348       17.6419022915
  H        13.6021583335        2.9892160131       23.3788270516
  H        14.5284789348        1.5817753425       23.5909020058
  C        15.6507716390        3.3605599422       22.9278741065
  C        10.7925100391        8.2472410896       13.5498507459
  S         3.8146665357        1.7976118351       37.6044189046
  C         4.3479090297       -1.2438122995       37.5364290012
  H         2.0828832432        0.8868300706       17.5439776924
  H         2.8612931569       -0.3896015960       16.6223458945
  C         2.1201510070       -1.0474476808       18.5538206858
  H        15.6484712778        4.0764719255       23.7396893304
  H        15.6196432504        4.0004002372       22.0291554967
  C        16.8873265351        2.5568542422       22.9084771873
  H        10.5868679922        9.3317159327       13.5800993268
  C        11.3426172899        7.8669742077       12.3769998706
  H         3.6009357513       -0.7962580617       38.1766136286
  H         3.9385508063       -2.2163634176       37.3840182410
  C         5.8146119131       -1.5212290717       38.0730438423
  H         1.0772550115       -0.9130611853       18.6880194277
  H         2.4400124661       -1.0893226739       19.5879366315
  C         2.2552458147       -2.3546748147       17.8360855380
  H        16.8879836495        1.6327011076       22.3328736896
  H        17.7036895545        3.2115730945       22.5374589038
  C        17.2667462790        2.1976241293       24.3508671501
  S        11.7270133645        6.2847093181       12.0144039844
  C        11.6742075236        8.9018004387       11.3690739132
  H         5.9998197290       -2.5419856377       38.2449059898
  H         6.5271902856       -1.2032611888       37.3219381823
  H         5.9337264802       -0.9515253609       38.9603435083
  H         1.8662541112       -2.4399955675       16.8283992034
  H         1.8409823264       -3.1491575813       18.4753975687
  H         3.2446564124       -2.8113228423       17.8145587644
  H        16.6753998384        2.7960047947       25.0161737317
  H        18.3309933713        2.4095869360       24.5122119941
  H        17.1545346114        1.1266126639       24.4560368453
  C        12.2352911667        6.8891829025       10.3788501917
  N        12.1386577201        8.2269716758       10.3280114738
  O        11.4372496913       10.1188460123       11.4095268083
  S        12.6526765497        6.0694177497        8.8840665445
  C        12.4235518720        8.9933747388        9.1949793480
  H        13.0652956356        9.8872318951        9.3822807462
  H        13.1413357163        8.5844149090        8.3988833302
  C        11.1500466261        9.2972678662        8.3930645199
  H        10.9701338087        8.6544765574        7.5686201144
  H        10.2832259215        9.2227808166        9.1201214934
  H        11.2123673064       10.2730430605        7.9972409392
  H         4.0499216989        1.1725225498       13.1133568243
  C         3.8579854608        2.2364211298       13.1761819819
  H         4.7462177847        2.7995362564       13.1226950598
  C         3.0777806731        2.5573233835       11.9073025403
  C         3.1723020246        2.6270781918       14.4724318531
  C         3.9451812474        2.6547657866       10.6686944929
  H         2.4441323247        3.4258126386       11.9734416142
  H         2.3762032904        1.6972905136       11.6397256192
  H         3.0099098768        1.7828272392       15.1401084943
  H         2.1616700784        2.9511197313       14.3590795696
  H         3.6762618854        3.4404514919       14.9599894604
  C         4.7176003895        1.4055307219       10.2941106734
  H         3.3430052586        2.9922818168        9.8396055233
  H         4.7364222773        3.3597582176       10.8447553733
  C         5.1262370221        1.2677403615        8.8664953099
  H         4.1164167809        0.4838142022       10.4518995467
  H         5.5693412768        1.1980969502       10.9453166490
  C         6.4061831795        2.0650042549        8.4568195021
  H         4.3034618914        1.6165347484        8.2001196764
  H         5.2590070366        0.1706775623        8.6489268990
  C         7.6876424605        1.4635209173        8.9803813122
  H         6.4097872089        2.1581326329        7.3100553803
  H         6.2272297699        3.0447958323        8.9674415051
  C         8.8387289163        2.4805912684        9.2853903975
  H         8.0519918949        0.6678349306        8.2305671060
  H         7.5379795866        0.9728874393        9.9066337979
  C         8.4234206533        3.8628432979        9.8925511686
  C         9.3979616438        3.1452810677        8.0720339024
  C        10.0579659696        1.8514140267       10.0834765959
  C         8.7300651413        4.9624089478        9.1001118607
  C         7.8988885983        4.3619841868       11.0813470202
  C         9.3035287047        4.5307875381        7.9142847527
  C         9.9937002838        2.5360764999        6.9444588995
  H         9.6735786555        1.0751780581       10.7141180024
  H        10.6841559415        1.3974830215        9.3024633149
  C        10.8872465497        2.9065055970       10.8841987366
  S         8.4433529983        6.4966660848        9.7890675727
  C         7.9138729173        5.7339249512       11.1693112834
  H         7.6817962873        3.6199077689       11.8201373885
  C         9.8144545947        5.1237910106        6.8124113984
  H         9.9760011112        1.5041221218        6.8564674105
  C        10.4184970358        3.1535110445        5.8178913047
  H        10.4206990282        3.4139619280       11.6066835176
  H        11.1754768072        3.8393079454       10.2449919177
  C        12.1178565666        2.3803520905       11.5831686662
  C         7.5968444993        6.4621168961       12.4575474247
  C        10.2902370936        4.4977771302        5.6510011529
  H         9.8123869679        6.2089124361        6.8690487775
  C        10.8658758041        2.7093384066        4.5898338590
  H        12.8860756073        3.1670792563       11.7484325049
  H        12.5538036157        1.6973269879       10.7928868466
  C        11.9664265708        1.6550894307       12.8890486966
  C         7.7032801413        7.8496559272       12.7433021369
  C         6.9684709463        5.6617519358       13.5818452468
  C        10.6995651302        5.1883332627        4.3817738704
  C        11.1373072619        3.8359764202        3.7913314718
  S        11.0813146569        1.1720262480        3.7861594060
  H        11.0000526933        1.2360135962       13.0356315633
  H        12.5984602306        0.8381386672       12.7581084165
  C        12.3925176524        2.5916313276       13.9982473664
  N         8.0953909051        8.7428536899       11.7663771422
  C         7.3685451660        8.4109282245       13.8742563275
  C         6.7826695177        6.2464498475       14.7818071264
  H         6.7752907795        4.5882431190       13.4459540456
  C        11.8588400544        6.1187595186        4.5108140813
  C         9.4922231728        5.7930803456        3.6410188924
  C        11.5681613153        3.3720678684        2.5203062817
  C        11.4950215196        2.0049958178        2.3620855505
  H        11.8501464667        3.5146045587       14.0352362267
  H        13.3980063791        2.9367992275       13.8062247047
  C        12.4407219436        1.9449240767       15.3492126038
  S         8.0627758958       10.2102222633       12.3848359122
  N         7.6253916682        9.8015829862       13.8984352359
  C         6.9201722207        7.6968171458       15.0201850735
  H         6.1677163284        5.8051920406       15.5448288282
  H        11.5319791431        7.0705070959        5.0291897809
  H        12.1865102889        6.4783168132        3.5011222328
  C        13.1322726940        5.5425805339        5.2505595895
  H         9.0326213965        6.4133610792        4.3252375536
  H         9.8215233034        6.3797431226        2.8362893224
  C         8.4549175183        4.7628836772        3.1721613836
  H        11.8521737642        4.0899730949        1.7759890974
  C        11.8222779064        1.2704974381        1.0572055877
  H        11.5332819602        1.3390616648       15.4658576786
  H        13.2575454747        1.1737356720       15.3705778698
  C        12.7691983323        2.8773921272       16.5106101734
  C         6.6013480738        8.4091871216       16.2359372419
  H        12.7854917291        5.2442857920        6.2225501750
  H        13.5185606172        4.6581074608        4.6726493054
  C        14.2987767795        6.5552838861        5.3719348145
  H         8.4370008678        3.9594780529        3.8908760312
  H         8.7309759078        4.4068487128        2.1312069556
  C         7.0766982995        5.4091468564        3.1161979571
  C        11.8460168300       -0.1554388499        0.8458451889
  C        12.1439616286        2.0881761845       -0.1287911595
  H        12.1524368178        3.7575786567       16.2878135369
  H        13.7530393692        3.2852720950       16.3311500245
  C        12.6472136646        2.2485602967       17.8297312346
  H         6.5251006838        9.4806441513       16.0638967928
  C         6.4509291015        8.0328054545       17.5497034186
  H        13.8235952859        7.4296457230        5.7371614268
  H        14.7831911768        6.6110884099        4.4247929279
  C        15.3510311713        6.1148152438        6.3958011000
  H         6.4439382635        4.7738673893        3.7618520495
  H         7.0205739120        6.4496016600        3.4724950719
  C         6.4578337183        5.2950273855        1.6527768494
  N        11.8023473448       -1.0523978103        1.8699099451
  C        12.1269343943       -0.7841346825       -0.3588603812
  C        12.3436675515        1.4337710267       -1.2920676018
  H        12.1258420578        3.1694796681       -0.0798840972
  H        13.4623299181        1.4254641912       18.0778788620
  H        11.6355187631        1.8439293481       17.9391996707
  H        12.6663534087        3.0789060633       18.5767604218
  S         6.1518310328        6.4527497975       18.1129390298
  C         6.4605280364        9.1449196260       18.5694748911
  H        15.6165123787        6.9693125574        7.0194748094
  H        14.9005435513        5.4002046523        7.1753291153
  C        16.5845724297        5.5192921413        5.6734333130
  H         6.5132135700        4.2815769221        1.3300119931
  H         7.0236976025        5.9548338201        0.9576585604
  C         4.9149610745        5.4927319552        1.7695001655
  S        11.8275526213       -2.5625211327        1.3105627852
  N        12.2535512791       -2.1867111916       -0.2243117769
  C        12.3925015779       -0.0645745050       -1.5241029427
  H        12.3862678090        2.1189945824       -2.1887731692
  C         6.1108572863        7.3090977657       19.7414480985
  N         6.1929582316        8.6215398579       19.7369411279
  O         6.7031097499       10.2869613704       18.2931148660
  H        16.3158754687        4.7182539032        4.9934608502
  H        16.9548120528        6.3092594296        5.0965831901
  C        17.5629426497        4.9201592819        6.6792860200
  H         4.4094258789        5.1796108835        0.8086258178
  H         4.6118529545        5.0422202339        2.6853137188
  C         4.6019176163        6.9776396254        1.8739877775
  C        12.8196054719       -0.7242351506       -2.7289480682
  S         5.6246691259        6.5164497308       21.2108597853
  C         6.2280978837        9.3792894565       20.9601907713
  H        17.0071018723        4.3456722092        7.4535586854
  H        18.1660422618        4.1385903676        6.2179572572
  C        18.6020004998        5.8695959353        7.2064642015
  H         5.2968547948        7.3898500304        2.6637804123
  H         3.5211782523        7.0090589225        2.2025936067
  C         4.7460873336        7.7436252983        0.5326780885
  H        12.4401665478       -1.7238226145       -2.7345400605
  C        13.4670065139       -0.3611615289       -3.8879276662
  H         5.4392410103        9.1274540973       21.6900951243
  H         6.0872568052       10.4657842173       20.6401820754
  C         7.5793877009        9.4139810960       21.5733944006
  H        19.1032148069        5.4766877914        8.0703950002
  H        18.1675816769        6.8290599894        7.4667311644
  C        19.5847924556        6.2146511885        6.1316531997
  H         5.7588352263        7.7772373960        0.1131477134
  H         3.9953879197        7.2637346422       -0.1211354910
  C         4.5551432670        9.2474880504        0.6232293069
  S        13.9362697626        1.2508923498       -4.1879327102
  C        13.5052834431       -1.3270060856       -5.0336527607
  H         7.8944797566        8.4087239363       21.7763713271
  H         7.4623386214        9.8989395377       22.4675762136
  H         8.2762404810        9.9567015926       20.9399828895
  H        19.3320161864        5.6857218765        5.1704245921
  H        19.4935960366        7.2101384261        5.8786861959
  H        20.5806378329        6.1178034339        6.4889272559
  H         4.7984362384        9.6939035280        1.6079776758
  H         5.1565637391        9.6950151592       -0.1094381940
  H         3.5778240681        9.6351497036        0.3677828011
  C        14.2503873855        0.7751579739       -5.7805059588
  N        14.1158071598       -0.5792654493       -5.9937721512
  O        13.3275685400       -2.5393530809       -4.9424246081
  S        14.8103638408        1.7790500048       -7.0552015207
  C        14.4768422613       -1.2220577343       -7.3043440910
  H        14.8944070508       -2.2194680397       -7.0894307995
  H        15.2646533327       -0.6738047830       -7.8376958508
  C        13.3289585236       -1.2658322587       -8.3120979587
  H        12.2939623343       -0.9986539441       -8.0797038043
  H        13.3229899758       -2.1916768843       -8.9742974973
  H        13.6994332911       -0.5795547582       -8.9993091568
