352
 i =     1800, time =      900.000, E =       213.4021872867
  H        11.1950269215        7.1163955567       32.4060405507
  C        11.1578281249        6.0901226950       32.6041991834
  H        12.1750903141        5.7967236415       32.8512196214
  C        10.3547921104        5.3618414209       31.5804078291
  C        10.3895365897        6.1015238927       33.9137475662
  C        10.5336710500        5.9259260172       30.2454016341
  H        10.6949325580        4.3180128652       31.6628282159
  H         9.2508865289        5.3581274028       31.9358312044
  H        10.5890518433        7.0996823989       34.5777465256
  H         9.2937388765        6.3864533318       33.6851790317
  H        10.5616369234        5.1278834322       34.5673695191
  C         9.8633134676        5.0285100627       29.0969893837
  H        11.5696064281        6.2656375263       29.9334502554
  H         9.9722040921        6.9099082417       30.1485707136
  C        10.2025767133        5.4053649866       27.7196759560
  H        10.2101441707        4.0408221927       29.4308642893
  H         8.7464915102        4.9197906882       29.2203056692
  C         9.2036372248        4.8681115834       26.5918412163
  H        11.2198530652        5.1666767426       27.3650687516
  H        10.0301301269        6.5037328060       27.7127066550
  C         8.1421757460        5.7876889215       26.2075214023
  H         9.7603473675        4.6591351631       25.6534593366
  H         8.8591225820        4.0524964650       26.9801438478
  C         6.9843365293        5.0730103353       25.4230241447
  H         7.6740845201        6.3685765295       27.0010301508
  H         8.4628326359        6.5316653348       25.5939702331
  C         6.5666196634        3.8315495962       25.9957319295
  C         7.5152811291        4.4154774300       24.1580228884
  C         5.8502043884        6.1555067362       25.2282961283
  C         6.8589882184        2.7705301477       25.2206356519
  C         6.0160101247        3.4506682723       27.2000781611
  C         7.4193582843        3.1288199994       24.0330472603
  C         7.9911711522        5.0334478818       22.9407972199
  H         6.1986081510        6.8765109497       24.6431533209
  H         5.6398835844        6.5772622349       26.1870287485
  C         4.5585347738        5.5464832584       24.5276146631
  S         6.5068523782        1.2561548095       25.9471416304
  C         5.9550448408        2.1220202172       27.3888411217
  H         5.9352910756        4.1872821500       27.9842479409
  C         7.9859461903        2.5032626379       22.9485888283
  H         7.9131741183        6.1354155359       22.9574524857
  C         8.5111716344        4.4302520117       21.8417452078
  H         4.8275608857        5.3367129223       23.5196875729
  H         4.2577930342        4.7287689122       25.0874892720
  C         3.3616236461        6.5662292925       24.4096040460
  C         5.6892176198        1.2858452285       28.7131718834
  C         8.4556463936        3.1469858612       21.7387008871
  H         7.9721564389        1.3291042035       22.8331637000
  C         8.9713627463        4.9311213246       20.6544161247
  H         2.7697210766        6.1654551511       23.5386018814
  H         3.9813931935        7.4236831781       23.9986979767
  C         2.6001042872        6.6944257199       25.7771171964
  C         5.7092095141       -0.0769113736       28.9064331438
  C         5.3756549858        2.2148598752       29.8785339273
  C         8.9972166739        2.4666544771       20.4625973239
  C         9.3613280227        3.8287624779       19.8695695892
  S         9.0582140143        6.4195550589       19.8556389992
  H         1.6386415769        7.2081935720       25.5998098823
  H         3.2940505763        7.0419661836       26.5543079635
  C         1.9892646955        5.4133649412       26.3870822332
  N         6.2703703527       -0.9739337974       28.0224865699
  C         5.5198941464       -0.5792554068       30.1534131971
  C         5.0864016630        1.6871422284       31.1689100619
  H         5.3637895034        3.2590570221       29.6358085609
  C         7.8475562648        1.6482693969       19.7096131332
  C        10.1757844432        1.5660172094       20.8315630585
  C         9.7862990418        4.2977043915       18.5593545757
  C         9.7189999904        5.6143031703       18.4522322268
  H         1.4855982383        5.0358853205       25.5380522371
  H         2.6989440261        4.6670638190       26.6371098520
  C         1.0078225363        5.6708161547       27.5850274335
  S         6.3282174057       -2.4890664036       28.7353300669
  N         5.6855318111       -1.9911794738       30.1557589449
  C         5.0971348742        0.1665005095       31.3451502793
  H         4.6554460527        2.3718225118       31.7571277128
  H         7.6742930903        0.8533128035       20.3935426112
  H         8.1675227890        1.2615982197       18.7567981789
  C         6.6283793542        2.4663155884       19.3263632347
  H        10.4554923357        1.0733775379       19.9649163580
  H         9.9198996377        0.7150927760       21.4141450587
  C        11.3202545544        2.3611764762       21.5830875225
  H         9.9103349392        3.5821079236       17.8049141422
  C         9.9302379229        6.4456584536       17.0939224207
  H         0.4707391266        4.6116770615       27.7750624681
  H         0.0892455001        6.3772236737       27.3303006061
  C         1.8272995142        6.0681790698       28.8445428327
  C         4.7986112770       -0.4948715939       32.5912905075
  H         6.9150431770        3.0924666757       18.4866199097
  H         6.1347618024        3.0955929898       20.0810567225
  C         5.4809668402        1.5486354203       18.8195180463
  H        11.0471242999        2.8437614862       22.5676844251
  H        11.4869280388        3.1956645006       20.9996249528
  C        12.6081649730        1.6395086851       21.8061484880
  C        10.0761123356        7.8118151498       16.9718936235
  C        10.2306483504        5.6142592351       15.8090619701
  H         2.7830553786        5.5017494428       28.6662246232
  H         1.9117842706        7.1217017420       29.1300174786
  C         1.0557500668        5.6151313178       30.0719905732
  H         4.8651595429       -1.5791018251       32.5682407710
  C         4.4138721642       -0.2056403857       33.8554639001
  H         5.1935491925        0.7000367793       19.5524069199
  H         5.8008305375        1.0749863216       17.9059579965
  C         4.3036391649        2.4015541543       18.1981384631
  H        12.3432714565        0.8153983603       22.6137253401
  H        13.0021720613        1.3629431597       20.7806615206
  C        13.6266147298        2.5394631067       22.4512335253
  N         9.9084824482        8.7040535771       18.0851051303
  C        10.3599924554        8.4380601215       15.7867633760
  C        10.5234830410        6.2511776818       14.5943148172
  H        10.1887837653        4.4972663174       15.7856882996
  H         1.7381649707        5.1604438190       30.7939574104
  H         0.5815574261        6.4578098701       30.5437814827
  H         0.2203270241        4.9093264290       29.8041857195
  S         4.1398532590        1.3910891715       34.3978624966
  C         4.3321203204       -1.2802839099       34.8699734125
  H         4.2314120812        3.3500434541       18.8000735435
  H         4.5217185470        2.6814901942       17.0907864536
  C         2.9710544103        1.6684083467       18.2809197827
  H        13.2356384228        3.1345471070       23.1712534713
  H        14.0416538261        3.1036060538       21.5946955916
  C        14.8271824821        1.7876730443       22.8232802891
  S        10.0428425467       10.2542383754       17.4895746226
  N        10.3727215199        9.8293526983       15.9376514361
  C        10.5843937364        7.7768741998       14.5904112512
  H        10.4503779125        5.6096314328       13.7375437358
  C         3.8329030149        0.6185847584       35.9885840873
  N         3.9890652857       -0.6907277077       36.0816766445
  O         4.6798134451       -2.4972528673       34.5857891298
  H         2.3575231785        2.3955322377       17.6991100557
  H         2.6894488655        1.5332405345       19.3131907730
  C         2.8980573303        0.3488402356       17.5455866753
  H        14.6859873375        1.1636667463       23.6501037774
  H        15.2206229576        1.1809823425       22.0321679975
  C        16.0618117309        2.6764961583       23.2439466353
  C        10.9431839178        8.4717609014       13.4094684755
  S         3.3944164799        1.5667173049       37.4138165358
  C         4.1539887034       -1.4670159357       37.3356593804
  H         2.4246467501        0.3836647622       16.5878775576
  H         3.9343432977       -0.2191551209       17.2825301179
  C         1.9523039142       -0.7421776992       18.2777571127
  H        15.8239446176        2.8895291774       24.2340731704
  H        16.1429303940        3.5711789820       22.6683147192
  C        17.3067283924        1.8028922482       23.3268464184
  H        10.6522374988        9.5544285122       13.3218975775
  C        11.4406956626        8.2023885458       12.2504877988
  H         3.5141935863       -1.0588947614       38.1744052101
  H         3.7041493562       -2.4823312626       37.1721415367
  C         5.5521780796       -1.8157153004       37.7544465820
  H         0.8880333825       -0.5600107305       18.0445194889
  H         1.8823212159       -0.8257260424       19.2886620253
  C         2.3948434661       -2.1534025398       17.6932992363
  H        17.8770304069        2.1997931683       24.1958387693
  H        17.0299504340        0.7354838737       23.4844148182
  C        18.2273700437        1.7965895947       22.0047203592
  S        11.9768962133        6.5735844660       11.7860561261
  C        11.6635420229        9.2188802329       11.2146057124
  H         6.1627213387       -0.9070947359       37.5821738039
  H         5.6368038457       -2.1834795580       38.8515842691
  H         6.0409451979       -2.4982444024       37.2107029699
  H         1.6192307483       -2.9017485168       18.0048643780
  H         3.3963780406       -2.4588394174       18.0660701865
  H         2.3022556744       -2.1951615252       16.6543524285
  H        18.0011445049        2.5618265263       21.2888093067
  H        18.2127585639        0.6789178170       21.5916117987
  H        19.2793047965        2.1075400805       22.4523897965
  C        12.4781211030        7.2956517480       10.2586294232
  N        12.3024652250        8.5942168800       10.2284520509
  O        11.3850123529       10.4036928801       11.3226630921
  S        13.3546597777        6.5022428534        9.0331122690
  C        12.5997468382        9.3823957005        8.9844107391
  H        12.6143331594       10.4771648223        9.2301310723
  H        13.5411836410        9.1986396792        8.5612032997
  C        11.3729797563        9.1587881773        8.0089746114
  H        10.4366146682        9.2310573280        8.5031827782
  H        11.4275546920       10.0073019557        7.2621736677
  H        11.3873710443        8.1467622399        7.7284591409
  H         4.5566297544        1.0020069936       12.2710758800
  C         3.8214956548        1.8536459606       12.4492478877
  H         4.3554694077        2.8619876031       12.3374881893
  C         3.0513813342        2.1127135428       11.0310294192
  C         2.9435279510        1.7428156820       13.6880896878
  C         3.9300844899        2.5477762188        9.8822502034
  H         2.3056283156        2.9984755873       11.2276167208
  H         2.4129182259        1.2481796921       10.7591287117
  H         2.0102501179        1.2052900198       13.5341447846
  H         2.6325322905        2.7436830333       14.0986390692
  H         3.7867213153        1.3689552215       14.4518080422
  C         4.7164003283        1.3562334368        9.3809878729
  H         3.3381029405        2.9719576843        9.0449246232
  H         4.4709553582        3.3407127875       10.2964269899
  C         5.4762320821        1.5921267025        8.0226440791
  H         4.0193269656        0.5150578724        9.0558112033
  H         5.3406655981        0.8162835872       10.1689480566
  C         6.6105665624        2.5068929609        8.3402616987
  H         4.7685384289        2.1251828456        7.4061231845
  H         5.8353133348        0.7576941175        7.4086181043
  C         7.8510142046        1.7415102733        9.0209938783
  H         7.0355781671        3.2149439899        7.4467470433
  H         6.5223751529        3.1782771942        9.1705308864
  C         9.1375983025        2.7025104229        9.2196544983
  H         7.9925288544        0.7972071660        8.4540741095
  H         7.6210083089        1.3189929670       10.0983456994
  C         8.6640220394        4.0646275523        9.8559605451
  C         9.5060516517        3.3913187178        7.9939863322
  C        10.1709405351        1.9914307533       10.0506987927
  C         8.8390853248        5.1446303899        9.0244029874
  C         8.0801269856        4.4703916500       11.1049601347
  C         9.3676827204        4.7011843919        7.8447581841
  C        10.0759064273        2.8124932482        6.8341996519
  H         9.7676257331        1.4756987662       10.8304571482
  H        10.7096713463        1.1465195205        9.4494473949
  C        11.2775125649        3.1042230709       10.6340952848
  S         8.3577621133        6.6256302906        9.6915560170
  C         7.9032143353        5.8331184095       11.1295630605
  H         8.0066449299        3.7829052646       11.9580301211
  C         9.8694909709        5.2863618042        6.6462355552
  H        10.0151992937        1.6993964163        6.9142299789
  C        10.4373500662        3.3870810896        5.6602720091
  H        10.7479499426        3.9257389439       11.0323184379
  H        11.8458008970        3.4049220291        9.7766212869
  C        12.2051434020        2.4690028384       11.5760492017
  C         7.5802871874        6.6299558118       12.4446007868
  C        10.4255693279        4.6809598272        5.5759700482
  H         9.7671443206        6.4186176955        6.6116026350
  C        10.8512541611        2.9405897201        4.4471496891
  H        13.1233193836        2.6542511165       11.4470331545
  H        12.2590600324        1.4237536886       11.3032728681
  C        11.7491940471        2.5720418702       13.0253103999
  C         7.6927385555        7.9969786240       12.7031174874
  C         7.0262370956        5.8124210194       13.5561871883
  C        10.9040822080        5.3934286867        4.3511384797
  C        11.1974124446        3.9817278182        3.6149060092
  S        10.8836933564        1.4563058818        3.6320739919
  H        11.4566481367        3.7040524479       13.2974884433
  H        10.7254252937        2.1200316562       13.0955380494
  C        12.7290143429        1.9428768993       13.9679776246
  N         8.1332581420        8.8405180074       11.6793824137
  C         7.5025107140        8.5890082774       13.8871422532
  C         6.8657911237        6.3734260867       14.7998077384
  H         6.5945838356        4.7887517217       13.2866424859
  C        12.2140526688        6.1609926597        4.4286377883
  C         9.8468536894        6.1726504538        3.5476333987
  C        11.6345879090        3.6180202821        2.3618137157
  C        11.4586458673        2.2799965255        2.2196695836
  H        13.7477732798        2.3768197071       13.7592464925
  H        12.8019507071        0.7899440177       13.9013082448
  C        12.3118598024        2.1931633918       15.4562065100
  S         8.0962383284       10.4044823403       12.2223879947
  N         7.7529540671        9.9634371786       13.7418672076
  C         7.0951501815        7.9080056856       15.0551989884
  H         6.3446950002        5.6733181986       15.3893659813
  H        11.9376323903        7.1289419605        4.8812878701
  H        12.6058064452        6.2516583429        3.5012781215
  C        13.3678079930        5.4022272325        5.2220090426
  H         9.5622110169        6.9236231772        4.2958582057
  H        10.4767279797        6.7074514418        2.7221655791
  C         8.6914983218        5.3277118424        3.0163170493
  H        11.9270763873        4.3540302119        1.6226348817
  C        11.6533514240        1.4782063604        0.9301343117
  H        12.3149526553        3.2488063858       15.5176822874
  H        11.3501091024        1.6977409647       15.4696343235
  C        13.2195575977        1.5993858591       16.4932228401
  C         6.9428246168        8.5638238190       16.2784187894
  H        12.9518554888        4.8792042256        6.1856069118
  H        13.4722151620        4.4490084125        4.6527542811
  C        14.7125213482        6.1289673488        5.4266993027
  H         8.2381747215        4.6507518892        3.7052086808
  H         8.7886074167        4.5598323869        2.2764111549
  C         7.3900530785        6.0274914453        2.5823692828
  C        11.7879506567        0.1177539832        0.7327842632
  C        11.7949312942        2.3264622459       -0.2790866362
  H        14.3551849051        1.8349951739       16.3546569037
  H        13.1235537167        0.4736881355       16.3402550148
  C        12.8256211941        1.9885194625       17.9617117408
  H         7.1799955315        9.5070675172       16.0139306980
  C         6.5213790339        8.2802808806       17.4806259577
  H        14.5807388249        6.9940503259        6.0912371881
  H        15.0623709618        6.4760904486        4.4920704719
  C        15.7248537125        5.1646318023        6.0694978301
  H         6.8351546953        6.6351746586        3.4097067014
  H         7.7408928911        6.7923966947        1.8973744483
  C         6.3826166185        5.1110444959        1.8457228574
  N        11.6370006114       -0.7776016954        1.8272172076
  C        12.1642565767       -0.4917104014       -0.4679048163
  C        12.1241860590        1.6920080062       -1.5394887722
  H        11.5561179751        3.3714107571       -0.1044581929
  H        13.3400351648        1.4898574815       18.7652208765
  H        11.7488723722        1.8012500917       18.2292590141
  H        12.9306463121        3.0499408273       18.0115731848
  S         6.0704411169        6.7602194495       18.0112099542
  C         6.5391999317        9.2861260836       18.5842528706
  H        15.3209799613        4.5881518867        6.8192874778
  H        16.2903486846        4.6364316273        5.3357983082
  C        16.8585368026        6.0729204331        6.3845036982
  H         6.3695906891        4.3055854290        2.3752701228
  H         6.9750880195        4.8043688535        1.0730940326
  C         4.9718189516        5.6136003964        1.4783260908
  S        11.7645963278       -2.3161153482        1.2636335934
  N        12.3302167649       -1.8484777280       -0.2254969546
  C        12.3469040505        0.2299609143       -1.6206063411
  H        11.9639425383        2.2712845868       -2.3763280313
  C         5.9560454887        7.4640560118       19.6121061160
  N         6.2003465753        8.7418553956       19.6913483959
  O         6.6585036081       10.5000826434       18.3674211743
  H        17.3143999866        6.6431653693        5.4962820865
  H        16.6240290814        6.8993103783        7.0504072469
  C        17.9565791639        5.2115653981        7.1429060883
  H         4.7429234380        5.1475904955        0.5409859246
  H         4.2983247395        5.4067034866        2.2562889719
  C         4.8312924992        7.1347346160        1.2832130106
  C        12.6556528256       -0.4601951977       -2.7983187158
  S         5.6658320556        6.6130330331       21.0641605521
  C         6.1401475570        9.6618278886       20.9660435633
  H        17.5351624542        5.0215915453        8.1254725151
  H        18.0734015424        4.3137820610        6.7068393615
  C        19.1827506596        5.9521337546        7.2211856979
  H         4.3547748726        7.2013629263        0.2490139183
  H         5.8860671373        7.5210846144        1.1519727722
  C         4.1822636177        7.9933672187        2.3040134705
  H        12.4743691199       -1.5225487736       -2.8405080399
  C        13.2783147640       -0.0529275619       -4.0724652157
  H         5.4123550666        9.2994767720       21.6972540613
  H         5.8119645506       10.5719696754       20.4731626670
  C         7.4976003235        9.8791839049       21.6490649916
  H        19.9570918571        5.8323340954        8.0828321242
  H        18.9927216028        7.0524363307        7.0450522086
  C        20.1375878641        5.7233560725        5.9819328830
  H         3.0828269312        7.7715108500        2.4345387272
  H         4.4865591075        7.8465900443        3.4065158133
  C         4.0790232906        9.4728084625        1.7694919390
  S        13.7169627601        1.4880575691       -4.4822463587
  C        13.4041311531       -1.0272101846       -5.1655031459
  H         7.3859576583       10.1703921645       22.6574564273
  H         7.9930234695       10.6602059606       21.1319803814
  H         7.9441289453        8.9215267572       21.8125019156
  H        20.8389372299        6.5328543751        5.9964946165
  H        20.5102102440        4.7183000738        5.9859661904
  H        19.4964613314        5.8352221854        5.1039159537
  H         3.4540254853       10.0827563395        2.3244537204
  H         4.9246197849       10.0225587532        1.6170476079
  H         3.5243557317        9.5035674688        0.8999366346
  C        14.1750802344        0.9050172548       -6.0995203085
  N        13.9502071848       -0.4127740147       -6.2107490697
  O        13.2217473311       -2.3097189427       -4.9517309811
  S        14.6833375336        1.9400325547       -7.4015434936
  C        14.1469259794       -1.1945228475       -7.4653681056
  H        14.5042710351       -2.1311458206       -7.0227206643
  H        15.0248611790       -0.9508279051       -8.1006427415
  C        12.8450824888       -1.4133178258       -8.2357628475
  H        12.2258112180       -1.4475124079       -7.3849743997
  H        12.9874219732       -2.2555694600       -8.9170467582
  H        12.7013189656       -0.5626220482       -8.8998579598
