352
 i =    78900, time =    39450.000, E =       100.3583739326
  H        12.2966115233        6.9614669338       32.3868904240
  C        11.7108522755        5.9699200160       32.4109660497
  H        12.4793176065        5.2214624469       32.2309041264
  C        10.5574906116        5.8766066422       31.4871299229
  C        11.2821374928        6.0889290604       33.8887904038
  C        11.1839175624        5.8072827126       30.0319637368
  H        10.0676391056        4.9482018801       31.6036118128
  H         9.7355263508        6.5859307923       31.4677353210
  H        10.5183345390        6.8401765618       34.1149137930
  H        10.7591719201        5.1401473295       34.2118112575
  H        12.1540527464        6.2662099140       34.5406582126
  C        10.2109079930        5.6898940962       28.9084522056
  H        11.6915619476        4.8926991971       30.0507330754
  H        11.8596561726        6.6536848444       29.9019308625
  C        10.8053711313        5.3718062904       27.5328539652
  H         9.6699579805        4.8276705539       29.2542125808
  H         9.3511141019        6.3974484928       28.8817245101
  C         9.7781111854        4.7615472506       26.5214728090
  H        11.7203627971        4.6889191274       27.4433223185
  H        11.2123419897        6.2694285269       27.0561059831
  C         8.9083225681        5.8518096899       26.0019119440
  H        10.3645006254        4.2279568138       25.7265251187
  H         9.3704916543        3.9189094956       27.0336503327
  C         7.6589417825        5.2129678052       25.3714928950
  H         8.6103259614        6.4732210521       26.7739939537
  H         9.4316148706        6.5385211399       25.3617239834
  C         7.2454059940        3.8911435132       26.0341556465
  C         8.0514665691        4.4596458607       24.1660212698
  C         6.4361629868        6.1765459416       25.1923642198
  C         7.4437267530        2.7648181430       25.2694662375
  C         6.7172545861        3.5442630519       27.2319999806
  C         7.9345439433        3.1286438438       24.0065624341
  C         8.5074833125        5.0246952500       22.9811004575
  H         6.6250060438        6.8602967393       24.3622765066
  H         6.3133733518        6.7946967956       26.0236998907
  C         5.0978640937        5.4706734064       24.9740038668
  S         6.9359036808        1.3230927021       25.9544495480
  C         6.7038558351        2.1864708581       27.4256607806
  H         6.5141725179        4.2632905279       27.9829553728
  C         8.3350586324        2.4997810859       22.8451468268
  H         8.6511056756        6.0701699143       22.9700838503
  C         8.8827274154        4.4311311512       21.8542150455
  H         5.1639304228        4.7669413004       24.0779270644
  H         4.9294035245        4.8504602370       25.8496579068
  C         3.9162826579        6.3732234892       24.7939885705
  C         6.3043956906        1.4899657999       28.7126606886
  C         8.8263023629        3.0693709195       21.7335721973
  H         8.2670296810        1.4387878193       22.8276385784
  C         9.2273701987        4.8461512434       20.5704867260
  H         3.2294244720        5.7779413446       24.1629160355
  H         4.0233429059        7.2346709416       24.2278892867
  C         3.1858994182        6.5485281554       26.0876408731
  C         6.2543100802        0.0686244196       28.9558039032
  C         5.8316218648        2.2931210674       29.8917749954
  C         9.1326846015        2.4331168631       20.4244430929
  C         9.4568213581        3.8032783315       19.7734203224
  S         9.2976802551        6.4017754183       19.8416267056
  H         2.6080660384        7.4670664482       25.9413735089
  H         4.0030792702        6.7499093026       26.8708135060
  C         2.3101012973        5.3002086784       26.4743309636
  N         6.4758278965       -0.9267966214       28.0046669650
  C         5.9181334678       -0.4336243500       30.1911263960
  C         5.4054223547        1.7762143867       31.0797163173
  H         5.9497644192        3.3512625690       29.7253457982
  C         8.0569685371        1.6555568150       19.6368067306
  C        10.3523728741        1.5903442737       20.7287546876
  C         9.7006462349        4.2143740948       18.4629889387
  C         9.7398476019        5.5990663708       18.3828132985
  H         1.5629805534        5.1472418918       25.7024576992
  H         2.9767882218        4.3929402250       26.3680763470
  C         1.7502811604        5.3082280170       27.8528727722
  S         6.4020360389       -2.3621583168       28.7290713217
  N         6.0849155191       -1.8256300884       30.2596185603
  C         5.4800959604        0.3199999778       31.3489111869
  H         5.1772634790        2.5442567654       31.8273879956
  H         7.6537890581        0.8667798613       20.2458596806
  H         8.5696258356        1.0198436666       18.9314853057
  C         6.8237926657        2.4071690387       19.0879072016
  H        10.3972344332        0.8572395266       20.0159234421
  H        10.1936095073        0.9521561230       21.5201374544
  C        11.6293226225        2.2822500253       21.0970796276
  H         9.7330931036        3.4599075286       17.6561890233
  C        10.0583602737        6.3690269674       17.1109385188
  H         1.0137529112        4.4902692569       27.8497996553
  H         1.3031976678        6.2740856939       27.9423157578
  C         2.8139997402        5.2728821712       28.9402910555
  C         5.2665530713       -0.3195222667       32.6050678988
  H         7.1071650830        3.1248726170       18.3300358441
  H         6.4005168363        2.9497410265       19.9449876762
  C         5.8460806491        1.4705723046       18.5306619811
  H        11.5160028477        2.9538458761       21.8666194169
  H        11.9671930440        2.8487571824       20.2324932364
  C        12.7999344907        1.3162663289       21.4113780989
  C        10.1784284143        7.7952739845       16.9857442487
  C        10.4780803139        5.6256847724       15.9208227990
  H         3.4969364319        4.4443013075       28.8474899622
  H         3.3989703577        6.2229356584       28.9140324814
  C         2.1924174084        5.1329503937       30.3801203514
  H         5.5535606151       -1.3005205888       32.5540100832
  C         4.8935037981        0.0844844119       33.8742348201
  H         5.7335775344        0.5870802214       19.1402709336
  H         6.2180234000        1.1605108592       17.6130703922
  C         4.4713824180        2.1500156174       18.3546916669
  H        12.5620128438        0.7871786969       22.3373732201
  H        12.9730368886        0.5720376632       20.6475548414
  C        14.1971648104        1.9086256956       21.5814369708
  N         9.8778702632        8.6920522440       17.9929420719
  C        10.4981191820        8.4267522233       15.7983839727
  C        10.7661079498        6.1967275579       14.6723225503
  H        10.4898163998        4.5524122542       16.0084622821
  H         1.5416801561        4.2618553812       30.5130679136
  H         2.9944512683        5.0130827870       31.0675348928
  H         1.7018524364        6.0942218470       30.6412019873
  S         4.3774348972        1.6521676706       34.3067890523
  C         4.8888709661       -0.9046769029       35.0102010009
  H         4.4785259693        2.8757539301       19.1345311167
  H         4.3388509448        2.7673164468       17.4782872928
  C         3.2612472690        1.2759453321       18.6118043945
  H        14.3644556293        2.8017028597       21.0200232645
  H        14.9404022047        1.1690791864       21.1951879422
  C        14.4391510140        2.2906366883       23.0583704992
  S        10.2744194685       10.1325287856       17.4016296383
  N        10.6346794042        9.7468538387       15.9040702925
  C        10.7555756753        7.6777716019       14.5682259601
  H        10.9861744021        5.5595429988       13.8005073516
  C         4.2019035191        1.0467563718       35.9559028181
  N         4.5344188936       -0.2654064216       36.1047654592
  O         5.1658518024       -2.1135706929       34.8400287451
  H         2.2971873062        1.7516123700       18.7653007848
  H         3.3937949542        0.7093052646       19.5024912135
  C         3.2995560771        0.3155999227       17.3791219512
  H        13.5658814174        2.5919845813       23.5726077752
  H        14.7382763626        1.4115207373       23.6084361944
  C        15.5882467258        3.3320796605       23.1140896025
  C        11.1340769976        8.4209722119       13.4184925850
  S         3.7081974793        1.9650308090       37.3734172917
  C         4.6306942692       -0.9744368809       37.3774351434
  H         3.4932840437        0.9152619375       16.4657942997
  H         4.1140496089       -0.3901875934       17.3596058813
  C         1.9456802510       -0.3712969380       17.2242532902
  H        15.7077514526        3.5294206538       24.1863820377
  H        15.1902004336        4.2379326108       22.7686502568
  C        16.9609184873        2.9141273537       22.5788720162
  H        10.9796848343        9.5204444283       13.4444537946
  C        11.4503492401        8.0650032580       12.1559888124
  H         3.9070072331       -0.5356433969       38.1493788054
  H         4.3393861837       -1.9607458084       37.2585614588
  C         6.0604942468       -1.0060919825       38.0089526875
  H         1.8138669199       -0.8126713531       16.1943086065
  H         1.1237489541        0.3713117740       17.4625812641
  C         1.8060942561       -1.4709310520       18.2247771420
  H        17.0275751929        2.7552969847       21.5379331181
  H        17.6175562825        3.7531249249       22.7736703349
  C        17.6119925350        1.6954574784       23.3707689148
  S        11.7407621725        6.4637353384       11.5984646401
  C        11.5290064156        9.1946957783       11.1327298309
  H         6.2413404906       -1.8735500521       38.6447801322
  H         6.8806824642       -0.9252695398       37.2819279017
  H         6.0879949422       -0.1472345183       38.6206528531
  H         1.5606459935       -1.0400491269       19.1634224700
  H         2.6836903388       -2.0993505746       18.2598072171
  H         1.0487642698       -2.2053873730       18.0584729176
  H        17.4635485684        1.8499627570       24.4288752904
  H        18.6468229142        1.8200808425       23.1612688091
  H        17.2651093300        0.7709728487       23.0004331555
  C        12.0778568912        7.2007678488       10.0688018215
  N        12.0111482662        8.5933081033       10.0634235486
  O        11.3021076045       10.4034181697       11.3282268017
  S        12.6582226037        6.4721578377        8.5849456375
  C        12.2275103933        9.4481956200        8.8550686670
  H        12.5393475027       10.4838897442        9.1314989429
  H        12.8250362312        9.0877518444        8.0396319005
  C        10.9346807955        9.6637160509        8.0695017604
  H        11.1115353841       10.0233344633        7.0649061967
  H        10.3905303312        8.7568712700        8.1839797513
  H        10.3710847962       10.4110883640        8.6471035252
  H         1.9719301062        0.7510473231       12.5872259300
  C         2.7324839239        1.6305662982       12.4330552439
  H         3.7268356701        1.2405130530       12.3479403141
  C         2.3340252134        2.3176479272       11.0808599387
  C         2.5565964857        2.6090903788       13.6705597720
  C         3.6007478937        2.6764852187       10.2068118844
  H         1.7026911290        3.1796280923       11.2198299533
  H         1.6022268315        1.6369091767       10.6643131972
  H         3.5201717999        3.1158322663       13.9673489252
  H         2.2529818769        1.8700087064       14.4564103159
  H         1.7722104960        3.3304522958       13.4771717425
  C         4.2950007090        1.4953145365        9.5633087804
  H         3.1443786678        3.2798626485        9.3995601750
  H         4.2525164376        3.4256041971       10.7851417122
  C         5.1034611746        1.8248935345        8.2486922934
  H         3.5995481348        0.6717514700        9.4262331122
  H         4.9883992572        1.1593450894       10.3343071785
  C         6.2570275162        2.8046735229        8.5546691868
  H         4.4139978424        2.2942083191        7.5555150485
  H         5.5159472642        0.9497600632        7.7740282323
  C         7.4628881471        2.0878853110        9.1268869792
  H         6.5027309694        3.1663989683        7.5519688255
  H         5.9148187351        3.4876287924        9.2936584030
  C         8.7768425067        2.8929802538        9.0988400290
  H         7.6206803116        1.1245740501        8.6235831822
  H         7.2177942580        1.9284359689       10.1774674474
  C         8.4753205296        4.2182806952        9.8191475263
  C         9.2553637180        3.5735243832        7.9263258673
  C        10.0377873920        2.1724054736        9.7088566542
  C         8.8586753402        5.3238598806        9.0965733119
  C         8.0621956216        4.5959858603       11.1289725231
  C         9.2826978072        4.9352241741        7.8779282333
  C         9.7961347604        2.9811836735        6.7889397433
  H         9.7378616263        1.5829648661       10.5664424165
  H        10.1765465671        1.3798724929        9.0349436415
  C        11.2252541568        3.1162469506        9.9604168217
  S         8.6389326459        6.8158071893        9.8775903636
  C         8.1697992776        5.9673797154       11.2774234165
  H         7.8509405681        3.8296274123       11.8959155543
  C         9.7213995118        5.5953182526        6.7885246629
  H         9.8538105554        1.8992327005        6.7779570326
  C        10.2014725167        3.6327731648        5.6795597604
  H        10.9457356891        3.9447509306       10.6372495510
  H        11.6441873025        3.4366982251        8.9697087463
  C        12.3338146324        2.4587789493       10.8257004807
  C         7.6999370008        6.6768580438       12.5570424809
  C        10.1862298640        4.9660588060        5.6403212200
  H         9.7850424288        6.6297399799        6.8109757012
  C        10.7037248997        3.2415893473        4.4374643579
  H        13.0701792127        3.1833411606       11.0366799080
  H        12.8154500504        1.5321258669       10.4449451457
  C        11.9399240790        1.9518428081       12.2149640933
  C         7.8036467596        7.9998089841       12.8260141572
  C         7.2172349424        5.8473918792       13.6538191109
  C        10.7309594561        5.6411107267        4.4441328945
  C        10.8999004483        4.3293172247        3.6049515627
  S        11.1319658544        1.8160182441        3.5906375065
  H        10.8202771406        2.0993499527       12.4395207115
  H        12.1465643904        0.8824516909       12.1655147312
  C        12.7188483437        2.5856198341       13.3661349829
  N         8.1621257907        8.9832718859       11.9148430089
  C         7.5385873315        8.5374928678       14.0627611353
  C         6.9399496645        6.3762058284       14.9485158835
  H         7.0016575677        4.8207213914       13.4755472290
  C        12.0145605993        6.4462069307        4.7739437038
  C         9.6968958627        6.6122674598        3.7572614511
  C        11.2023641929        3.9907451581        2.2668400115
  C        11.3766135122        2.6452701723        2.1248700085
  H        12.3621259995        3.5897289888       13.6450439917
  H        13.8012854526        2.7027897738       13.0461144794
  C        12.5333582487        1.8009424625       14.6515344388
  S         8.4478331508       10.4227270430       12.6510563504
  N         7.9043603717        9.8774260321       14.1552929681
  C         7.1716256370        7.7990607237       15.2144158597
  H         6.4782725886        5.7091869382       15.7047204550
  H        11.9634875139        7.0610471851        5.6652010988
  H        12.2418307383        7.1329948960        3.9094364241
  C        13.1891979292        5.4893640521        5.0417936539
  H         9.5699607223        7.4003433109        4.5403670934
  H        10.0722556158        7.1638974910        2.9227599206
  C         8.3492673708        5.9928262246        3.4645524342
  H        11.2328166909        4.7356625254        1.5869655611
  C        11.6103086544        1.8056466549        0.8781271243
  H        11.5303995889        1.4258134628       14.5986154329
  H        13.1156804192        0.9075333702       14.8169639289
  C        12.7128135783        2.5928135258       15.9335865256
  C         6.9737907591        8.5056039020       16.4546605187
  H        12.8678265169        4.8916985850        5.8818192356
  H        13.2709332059        4.7102312410        4.2930778741
  C        14.5650895476        6.1864216137        5.1684651572
  H         7.6850153929        6.6515788178        4.0694688678
  H         8.4153396222        5.0237536515        3.9391800094
  C         7.9518237238        5.9618196910        1.9770816522
  C        11.6781764612        0.3644522884        0.7943344256
  C        11.7562552457        2.5162440029       -0.4454121061
  H        12.0755249274        3.5008563462       15.8484035284
  H        13.7693092170        2.8480557630       16.0495617642
  C        12.2559765858        1.7652465465       17.1665103474
  H         7.0669167250        9.6070355123       16.3595103140
  C         6.5927844430        8.1022412274       17.7336593743
  H        14.4304023485        7.1499589112        5.6649432167
  H        14.9605816034        6.3849642601        4.1739559528
  C        15.6252352829        5.2538145085        5.8169964700
  H         8.2087096162        6.9176700676        1.4832397284
  H         8.5455664219        5.2189544830        1.3507771237
  C         6.4498758152        5.6887886999        1.8226353018
  N        11.5027299164       -0.6033176577        1.8819854438
  C        12.0004714169       -0.3192748974       -0.3979256091
  C        11.9407485642        1.7988264558       -1.6030348967
  H        11.8550114898        3.6042852426       -0.4808116364
  H        12.1994368579        2.4023842231       18.0636230721
  H        12.9447674150        0.9312586238       17.3939182269
  H        11.2727592249        1.3740319147       17.0074868909
  S         6.2329189671        6.4542203009       18.2622915097
  C         6.6140578858        9.0790812453       18.8659087413
  H        15.1764566787        4.9059752925        6.6954119098
  H        15.9520283336        4.4959701651        5.0742386224
  C        16.8527940518        6.0228335053        6.2242359098
  H         6.1431367638        4.9887250844        2.5905391209
  H         6.3179397791        5.1364064357        0.7939938411
  C         5.4914287299        6.8853057822        1.9792207679
  S        11.5810738789       -2.1181178828        1.2499870871
  N        12.0027599187       -1.7289506773       -0.3106162310
  C        12.1007136349        0.3471730097       -1.6230157198
  H        12.0443370949        2.4401178915       -2.4726850170
  C         6.0592562981        7.1432777243       19.8446723125
  N         6.2800265268        8.4480436444       19.9986643009
  O         6.9615043773       10.2670983433       18.7661862105
  H        17.3457271445        6.4959326804        5.3889601620
  H        16.5449974266        6.8667186298        6.7972966919
  C        17.8774908710        5.1388698580        6.8485225214
  H         4.4540068708        6.5540108064        2.0186583286
  H         5.5947240797        7.3263498591        2.9971694758
  C         5.6711824213        8.0614641577        0.9611112868
  C        12.3585318557       -0.3966819512       -2.7537732866
  S         5.9260821731        6.2138240824       21.3586609883
  C         6.2662476724        9.2002185569       21.2438671943
  H        17.3842062946        4.4875392130        7.5805178683
  H        18.2963574680        4.4443533174        6.1181609368
  C        19.1040634010        5.9004438073        7.4763028271
  H         5.8041379501        7.6502142762       -0.0434817143
  H         6.4444491585        8.7711200979        1.2580020049
  C         4.3103480919        8.9104342519        0.9547763218
  H        11.9027123170       -1.3782308143       -2.7428667836
  C        12.8819936249       -0.0798070089       -4.0029665737
  H         5.5016189021        8.9317554725       21.9098571347
  H         6.0313659921       10.2750886904       21.0162312239
  C         7.7143148153        9.1380155961       21.9273689466
  H        19.5372100937        5.4048690633        8.4765630177
  H        18.8562887511        6.9646927438        7.7037483433
  C        20.2994209028        5.9031143112        6.5707201491
  H         3.8763459032        8.6936379968       -0.0198330501
  H         3.5612494435        8.7343961462        1.8303081602
  C         4.4891909301       10.4002131377        1.1862748430
  S        13.4807052255        1.4278627877       -4.4928331681
  C        13.0323992196       -1.1474716348       -4.9901672345
  H         7.8744625528       10.0889587625       22.4136939616
  H         8.4030823963        8.9900348836       21.0574291439
  H         7.7997588139        8.2479949082       22.6558588369
  H        20.5423863821        4.9912476095        6.1380568510
  H        20.0542014877        6.5087602134        5.6509681499
  H        21.1001550487        6.3669657950        7.1493531140
  H         5.0439831006       10.8427157187        0.3979062728
  H         3.4982297421       10.9603720921        1.2088567573
  H         4.9823209883       10.4325082595        2.1679834905
  C        13.9480197913        0.6448110048       -5.9840186862
  N        13.7200711312       -0.6707129075       -6.0575095613
  O        12.5907960847       -2.2823977694       -4.7535493512
  S        15.0346906061        1.3172832932       -7.1971515134
  C        14.0041271795       -1.5353788508       -7.2183540357
  H        14.0534271203       -2.5006511211       -6.8829443953
  H        14.9367331756       -1.4352000598       -7.8090764603
  C        12.8544601415       -1.3492584732       -8.2290801424
  H        12.0468255734       -0.9071040701       -7.7596766239
  H        12.5931904425       -2.3653838377       -8.6073561504
  H        13.2319710989       -0.6760222491       -8.9622294004
