352
 i =    60400, time =    30200.000, E =        98.2553944674
  H         9.7185461054        5.3515301574       31.5935944384
  C        10.0168523020        6.3908136212       31.7903144986
  H         9.2438801666        7.0535295032       31.5821900760
  C        11.2184052857        6.5947795621       30.7630351662
  C        10.4113252909        6.4830578871       33.2068682201
  C        11.4174177402        5.6554203765       29.5316772925
  H        10.9101140487        7.5338481673       30.3445389772
  H        12.0776797875        6.9067676840       31.3441915012
  H         9.5627948944        6.5029506891       33.8637476518
  H        10.9233096842        5.6056304643       33.6089452631
  H        11.0173290953        7.3916205148       33.4529818663
  C        10.1623010386        5.3176017175       28.7552051467
  H        11.6915447128        4.6400380945       29.9291976125
  H        12.2376757437        6.0387561980       28.9155095933
  C        10.5973147696        5.1366383408       27.2434795569
  H         9.9527869064        4.3793204079       29.2713703785
  H         9.2957781574        5.9615660837       28.8938325065
  C         9.5742416854        4.5504309680       26.2842832789
  H        11.4281611601        4.4846898456       27.1091558646
  H        10.8848719479        6.1313713355       26.8964180533
  C         8.2990736973        5.4294471894       26.3074203889
  H         9.9754425574        4.5391978850       25.2775552945
  H         9.4066750323        3.5370910425       26.6035424923
  C         7.1301561436        4.8604721093       25.4701667325
  H         7.9433189089        5.6801043576       27.2946210618
  H         8.5523679497        6.3577522959       25.8347205576
  C         6.8224044039        3.5529124601       26.1199855182
  C         7.5408416306        4.1577009981       24.1856109451
  C         5.8857479988        5.7868515991       25.3359402497
  C         7.1653659352        2.4658403977       25.3557000211
  C         6.2754692216        3.1739632836       27.3735920939
  C         7.5464602829        2.8058156640       24.0690956488
  C         7.9562774026        4.7650883468       22.9433027284
  H         6.1194900127        6.5973118266       24.6654892175
  H         5.8080071993        6.3257411347       26.2556379010
  C         4.6642574482        5.0618134176       24.7566895198
  S         6.8051438205        0.9895011396       26.1502097129
  C         6.2299491852        1.8179342948       27.5117953649
  H         5.8776681971        3.8330630682       28.1201447516
  C         8.0423498160        2.1404790747       22.9731790535
  H         8.1606061000        5.8152219513       22.9141214686
  C         8.3201062328        4.0730044373       21.8273991772
  H         4.9706955225        4.9538683365       23.6953855267
  H         4.5744418945        4.0179565884       25.1082448765
  C         3.2925724562        5.8648771332       24.7389385707
  C         5.7876096179        1.0501573142       28.7686370254
  C         8.4168327227        2.7231120833       21.7558818183
  H         8.0894330879        1.1137682150       22.9591626678
  C         8.7310753273        4.5143791800       20.5904866833
  H         2.4766780443        5.2437527027       24.2256309317
  H         3.5255574863        6.8731808069       24.2921500574
  C         2.5885711365        6.0388163918       26.1473675586
  C         5.7541305232       -0.3936571170       28.8679066425
  C         5.4695078948        1.8806887419       29.9931696641
  C         8.8726522058        2.0550183655       20.4723845492
  C         9.0541373536        3.4290889825       19.8046216687
  S         8.8962236607        6.0186081711       19.7873025948
  H         1.7173393516        6.6697874854       25.9705959419
  H         3.2798819135        6.4973979479       26.7947479167
  C         1.9626782178        4.6602033352       26.5201289409
  N         6.0759619197       -1.2521016143       27.8263274105
  C         5.5099826078       -0.9625023319       30.0674255886
  C         5.2308516868        1.2703726124       31.2563676504
  H         5.5823309464        2.9670359951       30.0109002105
  C         7.7577908803        1.2697853382       19.8786488005
  C        10.1666306528        1.3160641565       20.6429331344
  C         9.3714555125        3.8140716847       18.4763240907
  C         9.3950020383        5.1924960984       18.3845378919
  H         1.2890500659        4.2437354902       25.7408412435
  H         2.6640687911        3.8533947859       26.6873399945
  C         1.2492828667        4.9315356562       27.8188002529
  S         6.1432254108       -2.7390464449       28.4536830028
  N         5.7676232998       -2.3878808160       30.0270447427
  C         5.1788157072       -0.2173950188       31.3027227012
  H         5.1440877075        1.9463996371       32.0996146403
  H         7.5114906232        0.3849981410       20.4325646836
  H         8.0623509863        0.9345972566       18.8906181708
  C         6.4799068415        1.9837634313       19.6203664192
  H        10.3361886880        0.8194538453       19.6995045951
  H        10.1296700779        0.5675310159       21.4376246359
  C        11.3453586261        2.1331067951       20.9807442765
  H         9.4156349725        3.1194702265       17.6839968460
  C         9.6302175724        5.9685426669       17.0552838894
  H         0.4717743507        4.1329374653       27.8534844239
  H         0.7608772673        5.8440972688       27.8125669310
  C         2.1950451363        4.9790927699       29.1191567768
  C         5.0978047980       -0.9455881185       32.4965659269
  H         6.5488104682        3.0481795854       19.7952084432
  H         5.7851731942        1.5980359461       20.3313984809
  C         5.8806587473        1.7506092867       18.2398667129
  H        11.0180914671        2.8149349201       21.8423318378
  H        11.6324243756        2.7588931386       20.1188261338
  C        12.4569407378        1.1917730947       21.5142867787
  C         9.6713600996        7.3418096457       16.8352346807
  C         9.9313686625        5.1519665614       15.8755834417
  H         3.0963236545        4.2963752523       28.9875467113
  H         2.6565162910        5.9418402368       28.9638175972
  C         1.5233710651        4.8791711906       30.4470951227
  H         5.1406245707       -2.0096724866       32.3122101753
  C         4.8244415824       -0.5976438609       33.8251070577
  H         6.1284768871        0.7306814076       17.9159566429
  H         6.4111032589        2.3212243830       17.5617616696
  C         4.3651286658        1.8589803160       18.2335396256
  H        12.2277727691        0.8194620306       22.4733501994
  H        12.6816201361        0.4124904068       20.7879996416
  C        13.7805413653        1.8582771583       21.6209839231
  N         9.5493168062        8.3108485270       17.8278246258
  C        10.1163361284        7.9184425833       15.6182417493
  C        10.2227360779        5.6763778219       14.6011069840
  H         9.8222706124        4.1472494546       16.0699604004
  H         0.4838766017        4.6798724283       30.4097987185
  H         1.8230514162        3.9915680070       30.9424352424
  H         1.6773435513        5.7680604991       31.0070689654
  S         4.6410415652        0.9901833353       34.3660686582
  C         4.6963935163       -1.6164141955       34.8631048566
  H         4.0553706038        2.4510788789       19.1420812526
  H         4.0964785881        2.2028301470       17.2447869521
  C         3.6488980898        0.5017707208       18.4917727796
  H        13.6435303362        2.7297177644       22.2704602603
  H        14.0821910436        2.2598027412       20.6633492166
  C        14.8178697534        0.8922489588       22.1675338944
  S         9.9242489042        9.7370601614       17.2608520765
  N        10.2321132709        9.3141790372       15.7036751196
  C        10.3476685618        7.1364658416       14.4643335961
  H        10.2602716315        4.9417137312       13.7963257050
  C         4.3966937367        0.2547383769       35.9817225739
  N         4.4710790649       -1.0673026289       36.1020357408
  O         4.8522047926       -2.8121272453       34.7060604753
  H         2.6826161509        0.7169814957       18.8588285239
  H         4.1153686054        0.0179834804       19.2692938833
  C         3.5063501959       -0.4514049323       17.3129841278
  H        14.3184628969        0.2126965228       22.8501538378
  H        15.2967551694        0.1962027301       21.4310887454
  C        15.8706258856        1.5199331217       23.0421297558
  C        10.4832992859        7.8284538151       13.1975652879
  S         4.1261122884        1.2439970333       37.3550149084
  C         4.4067919291       -1.8591229770       37.2702600761
  H         2.8048220065       -0.1450752097       16.5831026172
  H         4.4783857750       -0.5846401252       16.8518614735
  C         3.1347469116       -1.8474786806       17.7853969434
  H        16.4164186590        0.7582255609       23.6331064073
  H        15.4117571620        2.2806224949       23.7076844503
  C        16.8797500156        2.3075055372       22.1263976262
  H        10.2082054707        8.9170567274       13.3114431693
  C        10.8832391032        7.4423422294       11.9718983164
  H         4.1364475321       -1.2606573764       38.2223775277
  H         3.8074691746       -2.7639671616       37.1059696262
  C         5.8000106419       -2.3672787078       37.5390025745
  H         3.9274973621       -2.1584826343       18.5142181877
  H         3.0807111837       -2.5310392635       16.9914228101
  C         1.6682972966       -1.8759348736       18.3118544058
  H        16.3852209842        2.6704959455       21.2822294221
  H        17.1724641609        3.1452670271       22.7350986478
  C        18.0525929860        1.3848054955       21.7183179344
  S        11.4148261433        5.8802034867       11.5076282445
  C        11.0456198506        8.5181032295       11.0095863364
  H         5.6756847591       -3.0217807963       38.3741673648
  H         6.1738014192       -3.1921394492       36.8557038452
  H         6.4938013151       -1.5220383776       37.8436215889
  H         1.2808256621       -2.8120221637       18.5650393122
  H         1.0907390508       -1.6018703864       17.4367736639
  H         1.3860005252       -1.2562261307       19.1821959341
  H        18.7721752977        2.0482719645       21.2553556493
  H        17.7366328296        0.5453289420       21.0464444654
  H        18.5738019190        0.8488695950       22.4444525250
  C        11.8873474218        6.6589883140       10.0529679797
  N        11.7158677500        7.9745447596        9.9541458056
  O        10.7766274067        9.7472545966       11.1670934787
  S        12.7127702012        5.7554301748        8.6774402972
  C        12.1614919968        8.8120689188        8.8889663963
  H        12.2437007737        9.8629806907        9.1435478933
  H        13.1784024522        8.4444230218        8.6452513665
  C        11.1305587475        8.5871144461        7.7875630047
  H        10.1337759288        8.5779864299        8.0979559243
  H        11.1264762892        9.2206380696        6.8656138468
  H        11.1501202697        7.5160845867        7.4264726971
  H         4.3784711266        1.1776210922       12.3331151733
  C         3.7513421615        2.0431443495       12.4879213987
  H         4.3517520326        2.9620618631       12.5689085604
  C         2.7297139549        2.1791129278       11.3467720464
  C         3.0445003554        1.7445871470       13.8625759831
  C         3.2936022571        2.5180859451        9.9820551300
  H         1.9403122858        2.9158749403       11.4964707789
  H         2.1581118526        1.2517228962       11.3370685652
  H         2.3551435336        0.8639025847       13.8739738248
  H         2.4418887080        2.5668413136       14.0349668565
  H         3.7319477875        1.6686969209       14.6979424643
  C         4.1467911093        1.3044387806        9.5064794631
  H         2.4890236995        2.8584842781        9.3228213783
  H         3.9013048862        3.3717819070        9.9762149064
  C         4.7726345429        1.5976928822        8.1625351309
  H         3.4864201536        0.4284187163        9.3555417466
  H         4.8988028474        0.9729623341       10.2210928442
  C         5.9783600709        2.5107251211        8.2831459816
  H         4.0617669005        2.2439202868        7.6124232238
  H         4.8677656123        0.6859758342        7.6071984151
  C         7.2823161423        1.8131320225        8.6192671668
  H         6.0310036017        2.9699878399        7.2316332087
  H         5.7087727116        3.3088925402        8.9458170513
  C         8.5824527179        2.6000532047        8.9058433557
  H         7.5392678545        1.0412483060        7.8302135985
  H         7.1881760403        1.2262052880        9.5015389242
  C         8.2102301370        3.9341773140        9.6245691242
  C         9.0713167434        3.3615080069        7.6990919512
  C         9.7793942893        1.7509662170        9.5229524411
  C         8.4782406036        5.0231328763        8.8638516963
  C         7.7319470433        4.2905144867       10.8789893933
  C         9.0258622050        4.7286631232        7.6283470916
  C         9.5239280454        2.7306051378        6.5331327421
  H         9.4658520706        0.9792880102       10.2329185664
  H        10.1751697613        1.1433219600        8.7786869819
  C        10.9440089352        2.6951366485        9.9881465261
  S         8.2384447984        6.4829177263        9.7134351883
  C         7.7360380331        5.6218597743       11.0891118405
  H         7.6890074089        3.4912112907       11.6297273397
  C         9.5125605053        5.4471488982        6.5395410414
  H         9.5548607986        1.6368195940        6.5516645532
  C         9.9601974805        3.4496102236        5.4347231771
  H        10.6415896055        3.6928230175       10.3107039386
  H        11.5664637444        2.9289809635        9.1388455432
  C        11.8432082763        2.0649662475       11.0891213248
  C         7.3465419558        6.3612408460       12.3546489865
  C         9.9989791355        4.7802871040        5.3893308783
  H         9.4431676300        6.5225212122        6.4826572336
  C        10.5088418887        3.0528419571        4.2345923489
  H        12.7295106115        2.6931358930       11.2906691229
  H        12.4166718643        1.1927752811       10.8204087505
  C        11.1757641420        1.9193995790       12.4446835255
  C         7.3803627917        7.7425343382       12.6659193367
  C         7.0092637756        5.5386271309       13.5996777127
  C        10.5092723571        5.5238549931        4.1913821196
  C        10.8013232828        4.2061529999        3.4415555307
  S        10.9379159109        1.5771233529        3.4202677211
  H        10.5331021868        2.8170514510       12.7822430125
  H        10.4477369462        1.1712082198       12.3494776565
  C        12.0905612144        1.5641809238       13.5353960775
  N         7.7180049706        8.6919562749       11.6900748121
  C         7.1572820759        8.2848574458       13.9215926057
  C         6.8780356159        6.1095080798       14.8502385917
  H         6.9072213788        4.4706406804       13.6144593711
  C        11.8185062671        6.2946667759        4.4493039055
  C         9.4516165340        6.3283756181        3.4714404019
  C        11.3907896951        3.8589428696        2.1658865572
  C        11.4516658153        2.4660850804        2.0583391943
  H        12.9843709070        2.1110304285       13.2510424712
  H        12.3932064671        0.5387534870       13.6610303250
  C        11.6091199402        2.1457632834       14.8492728118
  S         7.7518410087       10.1549714937       12.3904780256
  N         7.3924218929        9.6825423545       13.9474218709
  C         6.9238874442        7.5570529355       15.1309918954
  H         6.6919726293        5.4123446641       15.6148484449
  H        11.6897249367        7.0686847546        5.2163692301
  H        12.0645728880        6.8357208148        3.4992474265
  C        12.8726558912        5.3713297495        5.0264900022
  H         9.1160734243        7.0657739008        4.1990445828
  H         9.9810489990        6.8889264375        2.6889902492
  C         8.2209585627        5.5463609551        2.7745364336
  H        11.7443694234        4.6546491689        1.5491795064
  C        11.7701855883        1.7419691729        0.8197519951
  H        11.3328101938        3.1577322536       14.6894629397
  H        10.7468982141        1.6108204707       15.1761826172
  C        12.6884180462        1.9942865523       15.8574467659
  C         6.6534606999        8.1999692560       16.3502125935
  H        12.5842431898        4.7359780535        5.8006271011
  H        13.4002713498        4.8577292004        4.1806710827
  C        13.9765077309        6.2009528819        5.6220228637
  H         7.6864001435        4.8915639216        3.4926540126
  H         8.6547954925        4.9589043144        1.9964213884
  C         7.2896727052        6.5462066142        2.0768541140
  C        11.7948152872        0.3293512192        0.5790001236
  C        12.0500769879        2.5556175736       -0.3734460432
  H        13.4820290298        2.7139532613       15.8175544315
  H        13.0714168100        0.9707589207       15.7577830775
  C        12.1387821136        1.9851478278       17.2427790939
  H         6.7893603820        9.2686005369       16.3624969956
  C         6.3031493807        7.6648740763       17.5914775082
  H        13.5748815008        6.9385762571        6.3554103184
  H        14.3425168771        6.7884773226        4.7575503203
  C        15.0672711384        5.2567145045        6.1436004109
  H         7.1622491643        7.4725382626        2.6699021589
  H         7.8292806805        6.9660252942        1.2120422975
  C         5.9832531574        5.9474969281        1.5260023641
  N        11.5212641495       -0.6514170007        1.5895509916
  C        12.0725140470       -0.2224535306       -0.6485898316
  C        12.2500029603        2.0021143931       -1.6239769310
  H        12.0640971103        3.5549393954       -0.3329038733
  H        12.0058415193        3.0219964338       17.5490037977
  H        12.8824323496        1.5683875764       17.9052128381
  H        11.2224015724        1.4710444948       17.2312028014
  S         6.0038697305        6.0983257102       17.9686581862
  C         6.1854668831        8.6230419771       18.7048707428
  H        14.7108879676        4.5889795180        6.8944599074
  H        15.2316425332        4.6588540377        5.1805384354
  C        16.3053087343        5.9215276649        6.6404233005
  H         5.4667492813        5.4228515506        2.2815288645
  H         6.0796212744        5.1451231746        0.8818161540
  C         5.0491013269        7.0629874363        0.9130460361
  S        11.3492496116       -2.1090224943        0.8681212730
  N        12.0756470038       -1.6594295409       -0.5301385174
  C        12.3250067584        0.5416987980       -1.7959385925
  H        12.5306954806        2.5990406960       -2.4877863015
  C         5.6740119792        6.6619832163       19.5980416557
  N         5.8338120717        7.9750757660       19.8664164886
  O         6.3279190001        9.8172982188       18.4997594523
  H        16.5929137690        6.5212095029        5.7968570177
  H        16.1347250443        6.6263282147        7.4963374942
  C        17.4546940314        4.9457927031        6.9412476314
  H         5.6236113473        7.6883551732        0.2588376017
  H         4.3386065117        6.6719319235        0.1817684465
  C         4.4995539930        7.8987365937        2.0671739390
  C        12.6961213637       -0.1550903146       -3.0127985822
  S         5.3752122897        5.5416586668       20.9596839581
  C         5.7061585450        8.5920924155       21.1630753276
  H        17.2341490222        4.4618677545        7.8688292242
  H        17.3545409399        4.0896085142        6.2828200867
  C        18.8827899563        5.5403245510        7.0039146458
  H         4.9115336607        7.7146612046        3.0466827231
  H         3.4561232527        7.5485831934        2.1841307832
  C         4.2817153549        9.3809128199        1.8321614314
  H        12.5104754171       -1.2241025796       -3.0184102708
  C        13.3298010451        0.2526138725       -4.1693091039
  H         4.7879744027        8.2309055342       21.7141029295
  H         5.4665834754        9.6436619772       21.0145171283
  C         6.9897741308        8.6575320576       21.9522691856
  H        19.3525515388        5.0130719878        7.8818546075
  H        18.8638757319        6.5637517056        7.3790249829
  C        19.7313371167        5.2821291804        5.7812095139
  H         4.0536090592        9.9410076813        2.7927309561
  H         5.3065763049        9.7486403307        1.6038442646
  C         3.3034478153        9.6761801773        0.7433348237
  S        13.9291968600        1.8013605440       -4.5728623389
  C        13.4642016650       -0.8251711744       -5.1861142770
  H         7.2515849084        7.7304352624       22.3031722807
  H         7.0717064828        9.4493913964       22.7875880220
  H         7.7877453166        8.7428842056       21.2323998191
  H        20.8228485399        5.0622350262        6.0700928665
  H        19.3365699422        4.4616555933        5.2135585646
  H        19.6583857587        6.2190820391        5.1338780430
  H         2.5867904623       10.4889930847        1.0269585036
  H         3.7855474689       10.0437896338       -0.1603323449
  H         2.7541850364        8.7703718997        0.4688011082
  C        14.2645566197        0.9918392612       -6.1166317839
  N        14.0945571222       -0.3153046685       -6.1725881533
  O        13.1303218997       -1.9844961036       -5.0721251804
  S        14.7749447663        1.8465474402       -7.6139769152
  C        14.1062099254       -1.0973294975       -7.4131645528
  H        14.3116182097       -2.1713724798       -7.2156397672
  H        14.8792260817       -0.8704943255       -8.1629388369
  C        12.7575971661       -1.0580975360       -8.0842302522
  H        12.3690866716       -0.0333804779       -7.9796946961
  H        12.0030100011       -1.6968698373       -7.5528055268
  H        12.8058395404       -1.1646990529       -9.1729898596
