352
 i =      900, time =      450.000, E =       207.8947151410
  H        12.5075362463        5.9783912043       32.5290727363
  C        11.8945461761        5.2788889244       32.2253140006
  H        12.4567297611        4.5894323087       31.8237516000
  C        10.7852972599        5.7349535183       31.2796275095
  C        11.2950002806        4.7654110351       33.5912781106
  C        11.2388690466        5.3029250499       29.8477988544
  H         9.9426874914        5.1923562663       31.5684513882
  H        10.7250715811        6.7641045179       31.3697028008
  H        12.0807832540        4.8528961528       34.3828614900
  H        10.4213244773        5.3364517672       33.8878533458
  H        11.0544607988        3.7098352212       33.4114292504
  C        10.0870630347        5.6471102979       28.7920291043
  H        11.2864346829        4.2463846584       29.8254604285
  H        12.1696903175        5.7581470949       29.5193818991
  C        10.6026562381        5.5477886415       27.3489141407
  H         9.2142193996        4.9795028287       29.0077192330
  H         9.8629863983        6.7584243697       29.0854125094
  C         9.4987794539        4.9318919039       26.3792118052
  H        11.3168819718        4.8409366477       27.2478075465
  H        10.8489111746        6.4291252409       26.8812734794
  C         8.2802751984        5.8477849521       26.3393832511
  H        10.0322235537        4.7547658553       25.3767143542
  H         9.2741265910        4.0287959875       26.7618084567
  C         7.0343815846        5.1663510250       25.5582957991
  H         7.8732308817        6.2183747039       27.1732720847
  H         8.4536785248        6.5868325773       25.6975615926
  C         6.7862435255        3.8470850132       26.2811119188
  C         7.5441139509        4.5139286253       24.2920259034
  C         5.7514471892        5.9985129682       25.3673273497
  C         7.0612406916        2.7834877994       25.4561480418
  C         6.2793691158        3.4350311801       27.4980432319
  C         7.5787576253        3.1551039416       24.2060453455
  C         8.0555163417        5.0940710793       23.1110236387
  H         5.7774067148        6.8405673088       24.6102187335
  H         5.3255777595        6.3002550637       26.3386961528
  C         4.5989208871        5.1839807409       24.7793104343
  S         6.7374607925        1.2239256956       26.2029227832
  C         6.2089682780        2.1175490000       27.5666858553
  H         6.0892598785        4.1717848798       28.1852428963
  C         8.0148620324        2.5810576917       23.0287749816
  H         8.1820776063        6.1946824339       23.0208799331
  C         8.5167168058        4.5207184496       22.0061342588
  H         4.9806944951        4.8077896599       23.6656526656
  H         4.6497527050        4.1687377456       25.3471132501
  C         3.3381585258        6.0340281241       24.8677790334
  C         5.6046864754        1.3679884110       28.7328971332
  C         8.5371834610        3.1857411757       21.9022589172
  H         7.9049585299        1.4608719021       22.9857411183
  C         9.0614030487        4.9093823346       20.7835419524
  H         2.6010217577        5.5886050078       24.2644757509
  H         3.4389216068        7.0188960366       24.3309620594
  C         2.7428905531        6.1375993769       26.2603033867
  C         5.7068506227        0.0025162472       29.1187420550
  C         4.9982040256        2.1453113934       29.8291841741
  C         9.0274374843        2.4231973276       20.6903240744
  C         9.3784591421        3.8105929079       19.9923493284
  S         9.4481321346        6.4155731232       20.0751246466
  H         1.8527952743        6.9102383692       26.1694205973
  H         3.4861457445        6.4669746917       27.0790204123
  C         1.9787065955        4.8408839077       26.7017637952
  N         6.1897790120       -1.0128843680       28.2699941746
  C         5.3519791510       -0.5122237106       30.2908540212
  C         4.7216147606        1.6330025609       31.0720667968
  H         4.7036267375        3.1350596140       29.6564599665
  C         7.8250598094        1.7113728335       19.9252868300
  C        10.3387718195        1.5636993531       20.8895788418
  C         9.8591233857        4.2361065352       18.7745830793
  C         9.8477313063        5.5773211716       18.6137230070
  H         1.3775906072        4.6446742547       25.7710864472
  H         2.6918958426        3.9846751970       26.9476066010
  C         1.0847001127        5.0529224147       27.8916155282
  S         6.1003337171       -2.4697841489       29.0100085732
  N         5.4987940995       -1.8714710407       30.4017346829
  C         5.0099040436        0.1940827208       31.4563812608
  H         4.3636366728        2.3888493036       31.7546075850
  H         7.3212472565        1.3754236294       20.7278807509
  H         8.3225845212        0.8746539023       19.5343848747
  C         6.9578999375        2.6999331430       19.0726953460
  H        10.4139179347        0.7978165529       20.1172731672
  H        10.0956524819        1.0543859910       21.7643277215
  C        11.5560539747        2.4424903174       21.0588988915
  H        10.0093080323        3.4662835470       17.9588483566
  C        10.1484920190        6.2947497201       17.3287979556
  H         0.3703303556        4.1323184254       27.9672705957
  H         0.5429324363        6.1365557942       27.7650143411
  C         1.9355865909        5.0660939622       29.1995963860
  C         4.8089394150       -0.4327197827       32.6953062419
  H         7.4984942652        3.1385992221       18.2346431364
  H         6.5549747123        3.4716249684       19.7176646267
  C         5.7190458587        1.8099867340       18.7276250311
  H        11.6451707792        3.1279550388       21.9347115647
  H        11.7944169045        3.0311592161       20.1693789133
  C        12.8505686974        1.6138241772       21.3940173071
  C        10.1023908454        7.7215710173       17.0622922085
  C        10.4904117402        5.5237037536       16.0827725688
  H         2.4590163867        4.0609433273       29.3121351859
  H         2.7107778094        5.8385034052       29.1360765718
  C         1.2476214254        5.3783630795       30.4257434074
  H         5.0697192972       -1.5007104525       32.5417108183
  C         4.5428213836        0.0468521604       34.0209479468
  H         5.2004277800        1.4403253115       19.5167554420
  H         5.9239799124        1.0860380570       18.0374562817
  C         4.7999777678        2.6857169093       17.8616753832
  H        12.5578432204        0.8400294223       22.0255280020
  H        13.2766245407        1.2670452382       20.4799616418
  C        13.7585930348        2.5042542932       22.0607439389
  N         9.7797854192        8.6130822852       18.0659253985
  C        10.1599983861        8.3207698345       15.8854467573
  C        10.5800524547        6.0901421243       14.8396490938
  H        10.6708723020        4.4785814330       16.1400487449
  H         1.8956161994        5.4756854000       31.3054270145
  H         0.7634247181        6.3563249505       30.4024018397
  H         0.4895971105        4.6699218380       30.7246288419
  S         4.2518782272        1.6397804150       34.5133607675
  C         4.5009083171       -0.9737067000       35.1418993127
  H         4.7842145722        3.6530003936       18.2526440010
  H         5.1446702098        2.7388870864       16.9176842076
  C         3.4130469940        2.1130516469       17.9723060972
  H        13.4724911065        3.0047208285       22.9947530083
  H        14.1603124848        3.3085646750       21.5730759185
  C        14.9044803460        1.6050249510       22.5258687959
  S        10.0348940924       10.1667206595       17.4557094230
  N        10.1615729696        9.6809866575       15.9124061486
  C        10.4375698368        7.6163374917       14.6492407719
  H        10.7901706966        5.3969025640       14.0597384088
  C         4.0266278624        1.0259844593       36.1118703765
  N         4.2752420890       -0.3566049427       36.3076427265
  O         4.7781996877       -2.1417772495       34.8996145127
  H         2.9168689210        2.9325540824       17.5979011511
  H         3.1914883241        2.1094785621       19.0327603851
  C         3.1751620398        0.7599012728       17.2907992875
  H        14.4519283794        0.6760675615       22.9683591488
  H        15.4285303797        1.2824928025       21.6341211230
  C        15.7832680565        2.5236599014       23.3863795143
  C        10.7928623294        8.2952298370       13.5055202411
  S         3.5825770119        2.0165675086       37.5170993082
  C         4.2950679364       -0.9731221761       37.6172645198
  H         2.4266609740        0.9921076007       16.3871103612
  H         4.2581280485        0.5361405332       16.9456728797
  C         2.5972367537       -0.3010905980       18.2090155075
  H        15.2334884547        2.7602716647       24.2732931498
  H        15.8431529046        3.3150499869       22.7033059544
  C        17.1281897043        1.9364416701       23.6793720952
  H        10.4706985736        9.3203664875       13.3504803881
  C        11.3163851126        7.8773368501       12.2798747084
  H         3.7357093988       -0.5242867441       38.3647084161
  H         3.8596743449       -1.9247765968       37.5856326792
  C         5.7838572382       -1.3229896022       38.0034391321
  H         1.9201316618        0.2339627670       18.7588382171
  H         3.4410930923       -0.6361158384       18.8179560162
  C         2.0899549689       -1.4002250306       17.2666649111
  H        17.4525460330        2.4129058797       24.5335231223
  H        17.1372322888        1.0600568257       24.0396794190
  C        18.1980508644        2.1858055090       22.5193056115
  S        11.9539900713        6.3786579037       11.7677445915
  C        11.4300658990        8.9095430605       11.2006982083
  H         6.5306232110       -0.7735661464       37.6328503692
  H         5.9917474964       -1.2116113100       39.0639381613
  H         6.1708987425       -2.3870713532       37.7225933456
  H         1.7208324814       -2.2046948804       17.8695461061
  H         2.9802884833       -1.6894739395       16.6788191882
  H         1.2998818009       -0.9340567559       16.5945564294
  H        18.8702743296        1.3185536891       22.3142711961
  H        18.8304775505        3.0339874109       22.7581712712
  H        17.7016246497        2.3149426439       21.6253008676
  C        12.0900611687        7.0107338415       10.2111052846
  N        11.9497842852        8.3750162481       10.0909681142
  O        11.1117273894       10.0856457932       11.3719406981
  S        12.6826146205        6.2173034827        8.7723842533
  C        12.0414052091        9.2310301154        8.8771862835
  H        12.1148494026       10.2617528621        9.0191723846
  H        12.8974820503        8.8292172843        8.3453479737
  C        10.7376212522        9.0810852052        8.0741990034
  H         9.8514325480        9.6172031425        8.6642043553
  H        10.9132565781        9.7155381285        7.1458578427
  H        10.5149792070        7.9586272514        7.7217113678
  H         3.8391901000        1.5096359749       12.5846902062
  C         3.4123927501        2.5110009788       12.6127677465
  H         4.1769767210        3.2625077197       12.4608294052
  C         2.5964867437        2.7265592678       11.3333731856
  C         2.7509288889        2.9168177199       13.9316343815
  C         3.5581888335        2.7594858829       10.1108297169
  H         2.1493981992        3.7111600396       11.3957222595
  H         1.7100407943        2.0581438642       11.1356481419
  H         2.9809395956        3.8984776544       14.0316977656
  H         3.2066340299        2.2805807421       14.6600813735
  H         1.7285727010        2.7536358932       13.8616254803
  C         4.2787888096        1.4965645474        9.7333352694
  H         2.8189386220        2.9981790726        9.2935611638
  H         4.3575705407        3.6031074168       10.3487794311
  C         5.1427207964        1.6744883812        8.4562969722
  H         3.6167064427        0.5990852629        9.4205628882
  H         5.0329080519        1.1137422588       10.6002513138
  C         6.4035303469        2.5718850098        8.4978389223
  H         4.4395075505        2.2647435002        7.7900675265
  H         5.1965401462        0.7918232402        7.8091762780
  C         7.6387898750        1.7733761646        8.9717194707
  H         6.3764076552        3.1501624040        7.5515271467
  H         6.2713455118        3.5260523314        9.1026178375
  C         8.8093411236        2.7571034447        9.1973172484
  H         7.7674202575        1.0799469450        8.1631735777
  H         7.3267083793        1.2940751278        9.8664956177
  C         8.3570464299        4.1874340610        9.8179917134
  C         9.2040090311        3.5127548263        7.9599938726
  C        10.0923696885        2.1680155701        9.7863182229
  C         8.6666516299        5.2214358045        8.9920243784
  C         7.7612014897        4.5359353940       10.9885332083
  C         9.2252967197        4.8621260523        7.7887918808
  C         9.7121329777        2.9537458344        6.7617927173
  H         9.7544859022        1.7196430688       10.7459837363
  H        10.3605146212        1.3738662387        9.1234832197
  C        11.2988885474        3.1263316047        9.8870798731
  S         8.3070879939        6.7756929139        9.7408420421
  C         7.7233690030        5.8804145311       11.1183610836
  H         7.4687582488        3.8719648323       11.5927269399
  C         9.6587130792        5.4795050222        6.6779214717
  H         9.7600709910        1.9226037667        6.6335703250
  C        10.1726372148        3.5719646612        5.6659102130
  H        10.7876874670        4.0749126027       10.2765249697
  H        11.6748706978        3.3169019027        8.8580807380
  C        12.3218988489        2.6629272928       10.9082735345
  C         7.3722295217        6.5824594985       12.3822040301
  C        10.1925010730        4.9061476504        5.5291978594
  H         9.6123317192        6.6351493470        6.6440368382
  C        10.7402519593        3.2277956972        4.4734560517
  H        12.9899965494        3.4563657273       10.8979554320
  H        12.9834588814        1.7751255422       10.6941829387
  C        11.8387210541        2.5668184672       12.4408658469
  C         7.6606251232        7.9389187449       12.7284915398
  C         6.8724611149        5.7832745892       13.5251936062
  C        10.6926332081        5.6666711715        4.3080053891
  C        10.9755962241        4.3364081682        3.6299228604
  S        11.1183629157        1.7284657339        3.7537061701
  H        11.0866228672        3.3418421737       12.5483519097
  H        11.2887895584        1.5528565043       12.4820085909
  C        12.9463264589        2.6576141500       13.4396650220
  N         7.9299908542        8.9165021730       11.7590798361
  C         7.4177341538        8.4945978815       13.9691532804
  C         6.6448361551        6.3770138232       14.7645408744
  H         6.5066072515        4.7696404754       13.4173854821
  C        11.9276827340        6.5494824683        4.6599661925
  C         9.5740132899        6.3579178786        3.5397050373
  C        11.4407300908        3.8414040602        2.3706194908
  C        11.5176210463        2.5027624170        2.2911911810
  H        13.2144748954        3.6126012950       13.6649555719
  H        13.8443660472        2.1616868661       13.1547873812
  C        12.4544683233        2.0663121085       14.8684523103
  S         7.9751664560       10.3958536694       12.5062989212
  N         7.7067113043        9.8626442326       13.9896836183
  C         7.0564413783        7.7963139622       15.1432594051
  H         6.2350460943        5.6652484530       15.4899682091
  H        11.7640478947        7.0601912756        5.4674003844
  H        12.0353847438        7.1625534997        3.8050178578
  C        13.1124029698        5.7074373944        4.8676577790
  H         9.1184240129        7.0103710133        4.3669809451
  H        10.0220395988        7.1017360633        2.8493378652
  C         8.4281168659        5.5219097951        2.9505708344
  H        11.5945094220        4.6911880510        1.7405387825
  C        11.7999497316        1.7031181914        1.0320459419
  H        11.6888845709        2.7293486100       15.1745436527
  H        11.9753387359        1.1238726608       14.7298982245
  C        13.6119499438        1.8992289326       15.8913882259
  C         6.8946583711        8.4067960584       16.3690399610
  H        13.1248672251        4.9492635194        5.7580429482
  H        13.5393575540        4.9965475980        4.0178214994
  C        14.3940193223        6.4954201809        5.2398460750
  H         7.8656045338        4.9998718841        3.7680505465
  H         8.7859338856        4.7381938391        2.2894441249
  C         7.4374293868        6.3405849188        2.1650213144
  C        11.8782432416        0.2796637203        0.8684329590
  C        12.0762416946        2.4171673748       -0.2222642819
  H        14.2632533691        2.6120549802       15.5808799890
  H        14.1205044190        1.0198744360       15.6802655226
  C        13.1375849914        2.0692410929       17.3479654714
  H         7.2131102771        9.3068128835       16.3477715988
  C         6.6496916016        7.9627496760       17.6820486267
  H        14.2449369161        7.0154544280        6.2220772553
  H        14.4532877446        7.2596646644        4.3466636462
  C        15.6666683503        5.5679983252        5.2376161600
  H         6.9948001779        7.1733985706        2.7785383303
  H         8.0246001102        6.8420351357        1.3970234440
  C         6.2487666302        5.5224162555        1.5816901901
  N        11.6494155556       -0.5807152417        1.9290033441
  C        12.1474009101       -0.3572797606       -0.3253105448
  C        12.3105930526        1.7955990139       -1.4463016323
  H        12.0085113040        3.4398131680       -0.2936035032
  H        14.0213754889        2.2214525712       18.0368888303
  H        12.7612115098        1.1756880176       17.8853758742
  H        12.3635972934        2.8540717530       17.5753899025
  S         6.2536599436        6.3823914761       18.2216284967
  C         6.8065430231        8.9901174734       18.7662713602
  H        15.3563729819        4.5737040612        5.7071353277
  H        15.9394264169        5.2815197434        4.2266278530
  C        16.8123171932        6.2216909049        5.9183189068
  H         6.3575586509        4.3513111996        1.6643884321
  H         6.4039452154        5.4784448235        0.4102585846
  C         4.9260842855        6.0788465423        1.8290047583
  S        11.6959360671       -2.1287248961        1.3195058131
  N        12.0856950577       -1.7771406973       -0.2148449860
  C        12.3047578640        0.2929146141       -1.4957230741
  H        12.5139140205        2.3432991866       -2.3772532860
  C         6.3264749341        6.9821187452       19.8302642220
  N         6.3701543757        8.3948140440       19.8595295716
  O         6.9509372129       10.2046612493       18.5956814124
  H        17.5693230380        6.6613980579        5.2060158707
  H        16.4468895161        7.1198607020        6.5604877281
  C        17.5849609334        5.3130334173        6.8925724016
  H         4.2252553603        5.4555876593        1.3468965509
  H         4.6268067832        5.8925958589        2.8381089636
  C         4.7478534638        7.5156902137        1.4153042485
  C        12.5582345599       -0.4150890308       -2.7229701185
  S         5.6149821237        6.0590736715       21.2288156661
  C         5.9335441138        9.1414043272       21.0270884266
  H        16.9226748133        5.2091184521        7.7142603253
  H        17.6931163331        4.3829118147        6.4374102210
  C        19.0000755445        5.8809406510        7.2048348565
  H         4.1021991255        7.5394512746        0.4620081772
  H         5.7504789952        7.9671745341        1.0843775384
  C         3.9980018589        8.3766615239        2.4892142030
  H        12.4119248383       -1.5200610525       -2.6413115915
  C        13.1372681158       -0.1688557535       -4.0053374117
  H         5.1802394181        8.5456680650       21.6004706585
  H         5.4581755692       10.0836216372       20.7293165632
  C         7.1387086976        9.4835081577       21.9791567580
  H        19.4848403761        5.6047609910        7.9934850711
  H        18.8686541734        6.8370227721        7.4054561765
  C        19.8744012942        5.5773115811        5.9304839109
  H         3.2016419455        7.7806575451        2.8606371633
  H         4.7128262453        8.5074608176        3.1515712065
  C         3.3305037492        9.6657337362        1.9549963319
  S        13.7181280950        1.3731150762       -4.5130875058
  C        13.1340796794       -1.2159044627       -5.0585352763
  H         7.5868169831       10.4202315314       21.6201201347
  H         8.0779948917        8.7044480176       21.8736554152
  H         6.9079414937        9.7956374516       23.0094368468
  H        20.9131834040        5.4477388477        6.1725715804
  H        19.5005025702        4.6559833496        5.3675489261
  H        20.0235497144        6.4860437616        5.2998139966
  H         2.8108370104       10.2341166991        2.7298047555
  H         4.1114800056       10.3036152244        1.4607541992
  H         2.5935798893        9.3699966287        1.1802782204
  C        14.2951978916        0.5295800519       -5.9071161565
  N        13.8601792212       -0.7099697358       -6.0330761726
  O        12.7009820545       -2.3597892186       -4.8120456836
  S        15.0790544987        1.4863539394       -7.2219408933
  C        14.2210531074       -1.5271769512       -7.1865700939
  H        14.1908573643       -2.5607442919       -7.0289243956
  H        15.2724041258       -1.3721634754       -7.4369364541
  C        13.0562985765       -1.4070705123       -8.3207067511
  H        12.2832641030       -2.1885016950       -8.3106481331
  H        13.6441021637       -1.3406413064       -9.2648423804
  H        12.5203975297       -0.4825916848       -8.0151409236
