352
 i =    61700, time =    30850.000, E =        98.2319521894
  H        12.3382052782        5.5609761757       32.0092446094
  C        11.3155557676        5.7615608172       32.1682943554
  H        10.8865001509        4.7342848153       32.3818889248
  C        10.7023380279        6.4653037316       30.9189553469
  C        11.3168549718        6.6158935722       33.4268029461
  C        11.0501944000        5.6690622902       29.6782478436
  H         9.6620031643        6.7728201515       31.1231968265
  H        11.2135868975        7.4191961076       30.8179915812
  H        11.4635779086        6.0133699878       34.3621904908
  H        12.1150244096        7.3273381102       33.3230180638
  H        10.4057572503        7.1055471019       33.6155868886
  C         9.8507899792        5.6488009569       28.7164056581
  H        11.4533604994        4.7608895638       29.9745252266
  H        11.8634287017        6.1473207292       29.3185435067
  C        10.4309291389        5.4562285018       27.2999639834
  H         9.2404978011        4.8378541065       28.9553409576
  H         9.3447444943        6.5676097977       28.8899844291
  C         9.5254933122        4.9365953758       26.2075663353
  H        11.1673282927        4.6699416902       27.5446854603
  H        11.0693784532        6.2869943881       26.8892610381
  C         8.4101366155        5.8736745851       25.8434167550
  H         9.9716819228        4.7036433425       25.2993498976
  H         9.2703142116        3.9391030719       26.6636949364
  C         7.1469615047        5.2549979557       25.1283240503
  H         8.0190300657        6.1463459529       26.7884872676
  H         8.7518643039        6.7353975265       25.2933681903
  C         6.7298919769        4.0157889635       25.8998487070
  C         7.5003077153        4.5034631671       23.9093935069
  C         5.8794449033        6.1309574613       24.7894048542
  C         7.0401112872        2.8965033098       25.1545231538
  C         6.2899141221        3.7758620845       27.2081856350
  C         7.5065764915        3.1503838233       23.8790245520
  C         8.0109578697        5.0399498476       22.7050757794
  H         6.2107700174        6.7963125096       23.9552329269
  H         5.6606822011        6.8522611008       25.5770814830
  C         4.5806077224        5.3923042826       24.4031128114
  S         6.6331411699        1.4757244000       26.0239501118
  C         6.1638289493        2.4317612383       27.4491468594
  H         6.1087802611        4.6259441290       27.8391720514
  C         7.9377772770        2.4563791089       22.7546947756
  H         8.0221443875        6.1604059713       22.7233347522
  C         8.3913673499        4.3651851583       21.5688502044
  H         4.5759314025        5.1315223626       23.3744779322
  H         4.4504117806        4.4866748055       24.9318273962
  C         3.3294767891        6.1706948643       24.7432329827
  C         5.8084338140        1.7043556282       28.6801456089
  C         8.3842121019        3.0019192418       21.5501331286
  H         7.8728370512        1.3526292670       22.7989223151
  C         8.8183850631        4.7141360236       20.3234012107
  H         2.5566555048        5.9073513800       24.0829945634
  H         3.4676170835        7.1480599570       24.3519027412
  C         2.8978834555        6.0562197930       26.2121774754
  C         5.7667219699        0.3350899281       28.9507062869
  C         5.4524533323        2.5491841460       29.8598640914
  C         8.8247725995        2.2729580985       20.3101325826
  C         9.0585760551        3.5998832869       19.5447049104
  S         9.1117839695        6.1706387263       19.5338816091
  H         1.9930671303        6.8100397934       26.3213021943
  H         3.7261375261        6.4080248269       26.8171216893
  C         2.5003279567        4.6494772677       26.6829218385
  N         5.9120925283       -0.6454868132       27.9641748771
  C         5.4526805151       -0.2273227923       30.1738069843
  C         5.1299763033        1.9990925170       31.0856101991
  H         5.3673558715        3.6425656977       29.7343685509
  C         7.7983636126        1.4516295928       19.5181736282
  C        10.1421632486        1.3933622249       20.4369920458
  C         9.4731445930        4.0076160646       18.2492450335
  C         9.5016273135        5.3651280803       18.1023201784
  H         1.9306712649        4.1222838973       25.9075212350
  H         3.3889547772        4.0170639420       26.9147424355
  C         1.7215516613        4.6762104187       27.9733242621
  S         5.6684788571       -2.1306833484       28.5199729242
  N         5.4258594364       -1.6091379080       30.0491213094
  C         5.1224274765        0.5075641156       31.3208621138
  H         4.7359734171        2.6638552238       31.8399396508
  H         7.6844717985        0.4775063436       20.0140494599
  H         8.2569926860        1.3209272399       18.5568985802
  C         6.4381023224        2.1069723835       19.1924271705
  H        10.4484995963        0.8958517820       19.4855927612
  H         9.8334397447        0.7171260954       21.2078013792
  C        11.3243321338        2.2161675146       20.8528952878
  H         9.5191932181        3.2063566382       17.4805811602
  C         9.9237144812        6.1451926154       16.8828600015
  H         1.3481390327        3.7230123195       28.1597608738
  H         0.7859746092        5.2226708391       27.8229774366
  C         2.5723738477        5.2221528371       29.2012763781
  C         4.7298198465       -0.2091811232       32.4823203239
  H         6.5699115247        3.1028851079       18.8157609990
  H         5.8268417922        2.1488265198       20.1061123507
  C         5.7035116523        1.4193315723       18.0999625451
  H        11.1048267885        2.8698114103       21.7066310150
  H        11.5598171645        2.9255951146       20.1530109882
  C        12.5500795065        1.3172924102       21.0524716070
  C        10.0735762521        7.5060717715       16.8278020580
  C        10.2762447005        5.4141108555       15.6256408703
  H         3.2176431027        4.3832872430       29.4674375444
  H         3.1824786951        6.0736773317       28.9193040784
  C         1.6461782512        5.6736271391       30.3265445890
  H         4.9139730130       -1.2367426399       32.4486788405
  C         4.4878111789        0.1518199294       33.7732886739
  H         5.6553907219        0.4098140447       18.3256063768
  H         6.3558138514        1.4618459050       17.1879440373
  C         4.2505464481        1.9703195182       17.8789498007
  H        12.3767434171        0.4084019756       21.5745578265
  H        12.8932079663        1.0454098847       20.0565888478
  C        13.6327972855        2.2265933040       21.7684055310
  N         9.8942702315        8.4330180269       17.9334231441
  C        10.3599811105        8.2177483386       15.6740329841
  C        10.6526059463        6.0753223842       14.4699719439
  H        10.1062144763        4.3950198531       15.5258439366
  H         0.9722068457        4.8929632016       30.6204461214
  H         2.3341104159        5.7170117367       31.2035377408
  H         1.1106830085        6.6450773963       30.1203891739
  S         4.2712225317        1.7236283610       34.2792553709
  C         4.3330151260       -0.8568947511       34.7979481741
  H         4.1015748347        2.7247501013       18.6430056269
  H         4.0056108479        2.4442853379       16.8616251618
  C         3.1692612347        0.9455058913       18.2088252589
  H        13.1804760849        2.9436234123       22.4850261271
  H        14.1906271476        2.8172299561       20.9730545036
  C        14.6682145624        1.3986974969       22.5570633472
  S         9.9413083981        9.9488797991       17.3870067514
  N        10.3113509417        9.5877088527       15.8057303754
  C        10.6953620594        7.5393126749       14.4793622138
  H        10.7382449147        5.5611311570       13.5194091274
  C         4.1229957002        1.0665504639       35.8643317131
  N         4.1951511320       -0.2723318132       35.9803787087
  O         4.3505793757       -2.0876077181       34.6321380227
  H         2.3619613855        1.5714563682       18.3025087833
  H         3.4046150108        0.5336157366       19.1528882821
  C         2.9896661608       -0.2687215913       17.2529070012
  H        14.2553516212        0.7474316172       23.3343610431
  H        15.1762392994        0.8583476765       21.7941264327
  C        15.6488034503        2.3768983776       23.1852826231
  C        10.9158506652        8.3535012651       13.3283426133
  S         3.6226825694        1.9247969818       37.2400069785
  C         3.8556790797       -0.9000177661       37.2476501909
  H         2.4903295218        0.1240387549       16.3028388713
  H         3.9994824967       -0.5211294966       17.0377739049
  C         2.3303026631       -1.5487279041       17.8862040172
  H        15.9750207066        2.0521225079       24.1781944923
  H        15.2468331401        3.2665738716       23.3240617253
  C        16.8783920008        2.4472501275       22.2982952693
  H        10.8162383974        9.4470544552       13.5331819431
  C        11.4468403785        8.0713124135       12.0366020525
  H         2.8462096661       -0.7084944833       37.5186294440
  H         3.8497955932       -1.9799670041       37.0958995727
  C         4.8399041827       -0.7249268169       38.4589477984
  H         3.0106855755       -2.2075219628       18.3993991782
  H         1.9387549719       -2.1400038345       17.0607137345
  C         1.1838382108       -1.2269444991       18.8840478830
  H        16.6145741097        2.3167681128       21.2568262732
  H        17.3767490301        3.4227617791       22.2510013785
  C        17.8343224066        1.3922105446       22.7370672324
  S        11.9808632427        6.5661229495       11.5259251064
  C        11.5726100732        9.1638620088       11.0621081814
  H         5.7253584646       -0.1331175738       38.1789283156
  H         4.4497668858       -0.2954877294       39.3466396421
  H         5.2052801899       -1.7025671391       38.7358739036
  H         0.6038379048       -2.1246453320       18.9916043295
  H         0.5074269608       -0.4655838174       18.5216123954
  H         1.6643602897       -0.9221768340       19.8109524317
  H        17.3288985505        0.5453731853       23.2721623487
  H        18.5900095604        1.6822116893       23.4197208849
  H        18.4337134622        1.0144400298       21.9041525306
  C        12.2794163093        7.2697574904        9.9244079585
  N        12.3120160865        8.6845783739        9.9482946692
  O        11.1415367692       10.3423706921       11.2138099542
  S        12.7895832775        6.4709086994        8.4251545667
  C        12.4292952349        9.5501497385        8.7623387415
  H        12.6175012495       10.5801090129        9.0919233454
  H        13.3474200398        9.2172993932        8.2679059779
  C        11.1803873585        9.4835413468        7.9137820127
  H        11.4626047931        9.7680182198        6.8828784390
  H        10.8472075103        8.4554532807        7.8686076872
  H        10.4579559753       10.1412820643        8.2928579140
  H         4.8973469071        1.9145644056       12.7492887090
  C         4.2537767854        2.8125534337       12.6652566941
  H         5.1051191804        3.5475058912       12.6097945942
  C         3.3165930759        2.8826581705       11.5079634509
  C         3.4368661284        2.8146402374       13.9769341011
  C         4.1082660576        2.9657028794       10.1572008484
  H         2.6384923366        3.6982048155       11.7156024420
  H         2.5956091274        2.0519109169       11.5770573936
  H         3.6679315079        2.0122534826       14.5775663292
  H         2.3582698976        2.8809592745       13.8097007402
  H         3.6551415429        3.7157348609       14.5082914256
  C         4.8231345705        1.6400343735        9.7928078919
  H         3.3873347233        3.1719195330        9.4011413894
  H         4.8216940445        3.8071877986       10.1640523702
  C         5.4097518235        1.4974452497        8.3290530138
  H         4.1470173993        0.8616601441        9.8621363738
  H         5.6740559503        1.5526185762       10.4361006484
  C         6.6393544333        2.3784691634        8.1612661664
  H         4.7293232125        1.7319992214        7.5493241571
  H         5.7021934221        0.4580222823        8.1608358723
  C         7.9033138696        1.8005270129        8.7477161288
  H         6.7254386942        2.5944875554        7.1501209121
  H         6.3328448637        3.3460493845        8.6219813401
  C         9.1193434564        2.8037517793        8.9749269995
  H         8.3899554714        0.9443324914        8.2400476103
  H         7.6138987386        1.3413531867        9.6985039737
  C         8.7913875662        4.1501644427        9.7105007908
  C         9.6148282234        3.4667117116        7.7168659275
  C        10.3231008775        2.1777764871        9.7799473796
  C         9.0019152318        5.2201477878        8.8584285375
  C         8.1709798460        4.4892123354       10.9338664383
  C         9.5311929723        4.8441650996        7.6081061476
  C         9.9693389101        2.8257639178        6.5583718907
  H         9.9153238987        1.8316184646       10.7203745615
  H        10.6102638707        1.1841384066        9.3629949594
  C        11.5691697344        3.1244415626        9.9290651427
  S         8.5589952463        6.6955229804        9.6188896115
  C         8.0588306685        5.8643236608       11.0131506385
  H         7.8730598912        3.8144447311       11.6678187673
  C         9.9923957002        5.4685701184        6.4681008463
  H         9.7410797049        1.7589955296        6.4655048739
  C        10.3038322130        3.4230592155        5.3709413819
  H        11.2447800810        4.0960915865       10.2789487651
  H        12.1616865083        3.2248905845        8.9742702808
  C        12.5621252358        2.6545486213       11.0743168465
  C         7.6874805685        6.4969189599       12.3026860787
  C        10.3788193078        4.8142139783        5.2460870917
  H         9.9947385977        6.5225577901        6.4942241394
  C        10.6981427161        3.0065690210        4.1157744816
  H        13.3474817249        3.4239741611       11.1340328904
  H        13.1251254292        1.7444091518       10.9063672889
  C        11.8933631542        2.6411053487       12.4414518886
  C         7.7839659818        7.8894639406       12.5144632033
  C         7.1510049191        5.6777409465       13.4266032628
  C        10.7948219670        5.4672968848        3.9386402109
  C        10.8845542886        4.0560771884        3.2354394870
  S        10.8552126968        1.5006856386        3.3954554051
  H        11.2416662640        3.4946862267       12.5323565039
  H        11.3390823797        1.6300419864       12.4987439736
  C        12.8664711086        2.6836670798       13.5562675680
  N         8.1832215979        8.9269498635       11.6069729836
  C         7.4467766647        8.4215846177       13.7611866240
  C         7.0211773404        6.1869364777       14.6643410971
  H         6.9304516228        4.6572451737       13.2499013246
  C        12.1976585493        6.1398687878        4.0700341829
  C         9.7112590131        6.3542832892        3.2549718646
  C        11.1473751794        3.6212997609        1.8875829933
  C        11.1416489366        2.2472285467        1.8381397733
  H        13.1322958710        3.6274292407       13.9003640105
  H        13.8671950825        2.2330948143       13.2875300079
  C        12.3000080797        1.9479421578       14.7581196270
  S         8.1567102844       10.3736858586       12.3968909795
  N         7.4942662142        9.8455766908       13.8435963299
  C         7.1729673014        7.6505867166       14.9539300041
  H         6.7204486350        5.4382034144       15.3247460061
  H        12.0000616973        6.9487765190        4.7419746606
  H        12.3998097330        6.4951043014        3.0528726117
  C        13.2799506097        5.1732217463        4.6189045770
  H         9.3890451119        7.0306233831        4.0151450854
  H        10.0555455808        7.0204465369        2.5224893831
  C         8.5419087267        5.5625709748        2.6150532037
  H        11.3291517946        4.3523138979        1.1025787702
  C        11.6041454474        1.5328511965        0.6016056315
  H        11.3266170978        2.3405365408       15.1209514368
  H        12.3162499659        0.9016962796       14.5326291635
  C        13.4252960518        1.9328260926       15.7904943317
  C         7.0494549004        8.3082282234       16.2041718866
  H        13.0085260477        4.8518513361        5.6245763504
  H        13.4718523847        4.4010673102        3.9600294514
  C        14.5581837240        5.9652752846        5.0162765101
  H         8.2454560532        4.8881749367        3.3945472106
  H         8.8951863143        4.9961384721        1.7491906403
  C         7.3608043343        6.4958051103        2.2305114893
  C        11.5681766913        0.1296121380        0.3139069613
  C        11.8489951463        2.3271104244       -0.5700565701
  H        14.2252189375        2.6410510412       15.5297031429
  H        13.8409369145        0.9448606247       15.7728304898
  C        12.9248963929        1.9891460640       17.2362822128
  H         7.1442697231        9.3563449734       16.1455920357
  C         6.5953094984        7.8949170605       17.4166319085
  H        14.2573155934        6.7135990138        5.7146324090
  H        14.9211458929        6.3716457941        4.0912555931
  C        15.6363569845        5.2032328130        5.7954791232
  H         7.4451466177        7.4069254156        2.8077389309
  H         7.4735970527        6.7485496256        1.2154606998
  C         5.9128437718        5.9573766996        2.3729787898
  N        11.2298995095       -0.7638643579        1.3274641946
  C        11.8603529032       -0.4730468926       -0.8613942021
  C        12.1515995026        1.6721387649       -1.8126646487
  H        11.9774589819        3.4032102114       -0.4748393019
  H        13.1286472322        2.9146524466       17.6520044114
  H        13.5321450958        1.3965010966       17.9174181669
  H        11.8590973593        1.7407928342       17.3588835481
  S         6.2021131655        6.2256050319       17.8253412263
  C         6.4010014232        8.8205103934       18.5563441546
  H        15.1750088923        4.7917789819        6.6932905251
  H        15.9657917645        4.3227860916        5.2275476667
  C        16.8678990644        6.0265602822        5.9952359010
  H         5.4622289111        5.9253745931        3.4057261711
  H         5.8761350459        4.9641024658        1.8468491196
  C         4.7954154907        6.8514549341        1.6504073061
  S        11.1563802162       -2.2696650646        0.6864544504
  N        11.6453433255       -1.8161099312       -0.8253379565
  C        12.2426770210        0.2131561776       -1.9901823519
  H        12.5126012484        2.2227310873       -2.6292685685
  C         5.9542182752        6.8125423862       19.4683273310
  N         6.0573278662        8.1353433514       19.6502267823
  O         6.5761499277       10.0354783706       18.4803861917
  H        17.3600354592        6.1637638651        5.0300352183
  H        16.5807750541        6.9033380357        6.5076292552
  C        17.9046263109        5.2904317898        6.7914237104
  H         5.2314916785        7.1799119417        0.6952211258
  H         3.9129703715        6.2115023183        1.5539813174
  C         4.6136242111        8.2782200678        2.2654002345
  C        12.6021586210       -0.4712476497       -3.1621002435
  S         5.3739281004        5.7989217948       20.8306029888
  C         6.1171843979        8.7544998809       20.9224960579
  H        17.5481171091        5.4487878075        7.8591243857
  H        17.9681814451        4.2214630715        6.6779757502
  C        19.3296787746        5.8539914291        6.7573674430
  H         5.5021869417        8.8509982493        2.0008677770
  H         4.5279688661        8.1134864047        3.3124953233
  C         3.3225362041        9.0326496123        1.7677210633
  H        12.2862317088       -1.4463138515       -3.1082565589
  C        13.2534903726       -0.2149804432       -4.3147699797
  H         5.5379333458        8.2947631121       21.6559022498
  H         5.6338178700        9.7470038490       20.8825108168
  C         7.5006480902        8.8919356436       21.4634058903
  H        19.8615681509        5.3445843976        7.5018638426
  H        19.4509019820        6.9758481149        6.9475678475
  C        19.9080653469        5.6951934708        5.3903625946
  H         2.4972687983        8.3841870652        1.7130860537
  H         3.0728586387        9.7942183005        2.4918677330
  C         3.5046941628        9.6066233818        0.3401632377
  S        13.8838633490        1.2700551110       -4.8550814595
  C        13.3008320294       -1.2814928141       -5.3245020425
  H         8.3111923803        8.7314328990       20.6784458125
  H         7.6011328417        8.3195390194       22.3097575603
  H         7.6536773566        9.9328272345       21.7740323964
  H        20.9403120034        5.8363625425        5.4728658246
  H        19.7652211797        4.6890007947        4.9747309760
  H        19.6352907930        6.4395952539        4.7238410209
  H         2.6665766045        9.6444496791       -0.3171104746
  H         3.9493661027       10.6093666073        0.3943548441
  H         4.1459245644        8.9098050706       -0.1724390755
  C        14.0396927455        0.4924606626       -6.4421102888
  N        13.7051965288       -0.7809204522       -6.4632954615
  O        12.9073743924       -2.4739578273       -5.0935986562
  S        14.2518411198        1.3371813028       -8.0034096245
  C        13.6683057618       -1.6247112099       -7.7101282282
  H        13.7557566410       -2.7220364490       -7.4764909917
  H        14.5491049618       -1.3981229059       -8.3906769537
  C        12.3603157979       -1.5346589218       -8.4735864562
  H        11.4773601760       -1.7741801185       -7.8586158587
  H        12.4169513982       -2.3029736926       -9.2489901260
  H        12.1973897535       -0.5913383475       -9.0276305287
