352
 i =   114800, time =    57400.000, E =        99.7567746658
  H        10.3249791348        4.4590053591       31.7496820422
  C        10.3401607170        5.4077283685       32.2259274800
  H         9.3565796597        5.8586455278       32.2240773179
  C        11.2547288677        6.3151925313       31.3717289527
  C        11.0070379822        5.1640828555       33.5895923074
  C        10.9291413689        6.5870011851       29.8928808473
  H        11.3516047979        7.3153706466       31.8542327006
  H        12.2636822289        5.9345206167       31.3258188186
  H        10.7935555826        5.9111945445       34.3246812643
  H        10.6562220102        4.2243962548       34.0050500090
  H        12.0997354940        5.1473826592       33.4310118084
  C        10.4193519798        5.2713630387       29.2106616481
  H        11.8091695924        6.8787324450       29.2821316922
  H        10.1387783721        7.3172541789       29.7639625307
  C        10.1097949299        5.3915755031       27.7396856310
  H        11.1825420576        4.4251569284       29.4061933190
  H         9.4832951256        5.0705397495       29.7733755607
  C         8.7551673076        4.7787895908       27.2070027944
  H        10.9042341166        4.8583577451       27.2730089572
  H        10.0973173639        6.3419735624       27.3323965227
  C         7.9310590403        5.7980788645       26.4317378454
  H         8.9956856943        3.9774791309       26.5522701119
  H         8.2523507466        4.3186943762       28.0610561255
  C         6.6758315947        5.1499503638       25.8184984040
  H         7.5935225800        6.7092320834       26.9764192334
  H         8.5715880094        6.1581727844       25.6477300999
  C         6.2300387055        3.8136404694       26.4561332966
  C         7.1059638967        4.4651328179       24.5376219456
  C         5.5164038715        6.1511200259       25.7579986935
  C         6.3990265927        2.7487133500       25.6210256787
  C         5.6768681340        3.3550369253       27.6637733489
  C         7.0537731500        3.1549228161       24.4104680573
  C         7.7308079543        4.9972446182       23.4153874696
  H         5.8307720328        7.1555242149       25.4003250592
  H         5.0543074375        6.3101192374       26.7340187474
  C         4.3930539681        5.6362024383       24.8242923808
  S         6.1629278283        1.1692577976       26.2645851053
  C         5.5901889813        1.9830612735       27.6992703486
  H         5.4682080934        3.9259878286       28.5401258042
  C         7.6115787468        2.5459621157       23.3201998340
  H         7.6864957797        6.0586647440       23.4133688276
  C         8.2648339990        4.4908066191       22.2881958923
  H         4.7724120169        5.8078444309       23.8022791574
  H         4.0937266041        4.6125398007       24.9525213950
  C         3.1785510971        6.5083164559       24.8241649118
  C         5.3143122664        1.1970827777       28.9288038746
  C         8.1361794841        3.1779617655       22.1255764132
  H         7.4995604821        1.5216389398       23.1032356209
  C         8.7478187996        4.9468864056       21.0486741478
  H         2.4338813364        6.2167556417       24.0692895747
  H         3.3338131850        7.4779613693       24.4400171070
  C         2.4419276940        6.6454997001       26.2052027357
  C         5.4416598282       -0.2045586154       29.1117611500
  C         4.8015828824        1.9747957653       30.1319914809
  C         8.5144475452        2.4398611390       20.8682659875
  C         8.9189028920        3.8520496896       20.2223249034
  S         9.1001566527        6.3804488404       20.3232637317
  H         1.5854047647        7.3306501376       26.1508509013
  H         2.9954203895        7.0543660793       27.0264982569
  C         1.9070106768        5.3380560030       26.7553309965
  N         5.8424578580       -1.0923160872       28.1389972295
  C         5.2104635098       -0.7909358529       30.3665864284
  C         4.5667229823        1.3230646693       31.3481370631
  H         4.6566465934        2.9783918934       30.0549887802
  C         7.3405163172        1.7080654430       20.0490896319
  C         9.7371817224        1.4968328945       21.0786297457
  C         9.3721085027        4.2527304754       18.9120369472
  C         9.5022476407        5.6114777886       18.8304170012
  H         1.2594308405        4.9631810159       25.9321361123
  H         2.6901600464        4.5496538843       26.9335364336
  C         0.9050504815        5.3211533968       27.8792707007
  S         5.8563247751       -2.5934902496       28.7683908981
  N         5.4377633498       -2.2359368705       30.2983423181
  C         4.8068541706       -0.1775464966       31.5779205292
  H         4.3529387103        2.0012850689       32.1685853220
  H         6.6977859879        1.2182795800       20.8130809813
  H         7.7298373143        0.9797732378       19.3779914483
  C         6.4586081453        2.6077196938       19.1331272283
  H        10.1276683823        1.2961274299       20.0586658918
  H         9.3500728593        0.5719385758       21.4237418164
  C        10.9180066259        2.0537308385       21.8165668755
  H         9.4640113261        3.5091272899       18.1751956885
  C         9.8081852033        6.3780014884       17.6028753404
  H         0.4228765928        4.3367079985       27.8433688406
  H         0.1091521844        6.0014670120       27.4798569316
  C         1.4069594283        5.7446639729       29.2700936691
  C         4.5687722215       -0.8816464411       32.7663137162
  H         6.9937741218        3.0335327049       18.2897334872
  H         6.1385114692        3.3851114469       19.7804110402
  C         5.1678876750        1.7757025474       18.6861448721
  H        10.5541240036        2.2983107706       22.8241548096
  H        11.1469376428        3.0583739105       21.4227858774
  C        12.1948993096        1.2689592785       21.8924759431
  C         9.8475165661        7.7648463847       17.4190496556
  C         9.8456811932        5.5742163609       16.3091047031
  H         1.3871854216        6.8207120665       29.3433145640
  H         0.7556212187        5.3587005806       30.0239390391
  C         2.7631675446        5.1214534496       29.6816753545
  H         4.7076638602       -1.9406787673       32.6744160079
  C         4.3637303631       -0.4812539767       34.0247725610
  H         4.4805071474        1.7666978010       19.5256359666
  H         5.3696125145        0.8232532219       18.3198721298
  C         4.4072017012        2.5156567433       17.6432154186
  H        12.0878949985        0.4223150887       22.5893752039
  H        12.4174761310        0.8132950597       20.8778545875
  C        13.2750056258        2.2042153585       22.3847456800
  N         9.8147974074        8.7027857601       18.4641609282
  C        10.1310360353        8.4092310261       16.1994826123
  C        10.0369657506        6.2178835542       15.1067866702
  H         9.7333382703        4.4733277071       16.2960849179
  H         3.0368971517        5.1271591870       30.8020052428
  H         2.7887783345        4.1370553486       29.2352263667
  H         3.5577660564        5.6128992217       29.0706704174
  S         3.9358708468        1.0780240523       34.5193797758
  C         4.3557235932       -1.5419985899       35.0667400435
  H         4.2468346893        3.4479932065       18.0933787426
  H         5.0857660556        2.6623648401       16.7994358975
  C         3.0423073117        1.8062905813       17.3791586443
  H        13.0576674771        2.8906313787       23.2106044627
  H        13.4924701013        2.8764912949       21.5138257148
  C        14.6902990870        1.6011275182       22.5797936895
  S         9.9152723840       10.1853201011       17.8500568696
  N        10.2299309458        9.7744275809       16.2993724206
  C        10.4476987801        7.6384722695       15.0607635244
  H        10.0087793165        5.6086936456       14.2241551021
  C         3.7142125513        0.2971175942       36.1081775179
  N         3.9592800335       -0.9749257897       36.2170829895
  O         4.6285464544       -2.7196364575       34.8845064934
  H         2.6690039706        2.4456468470       16.6396237570
  H         2.3515841000        1.7998020906       18.2423254761
  C         3.0267233935        0.4423447145       16.7498310253
  H        14.5941060325        0.9921318442       23.4704992586
  H        14.7841334652        0.8500481974       21.8118496917
  C        15.8917226779        2.5744232593       22.5639571474
  C        10.7552881800        8.3684235583       13.8522251239
  S         3.2047826405        1.1649690336       37.5013166730
  C         3.8541304788       -1.8066813691       37.3778844074
  H         2.3014988931        0.5269610051       15.9330114677
  H         4.0092756682        0.2387058762       16.3119164634
  C         2.4207300708       -0.6499407014       17.5726518195
  H        15.7037613167        3.2760350988       23.3609296500
  H        15.8799027219        3.1899293004       21.7286537027
  C        17.2863592708        1.9636418254       22.8673733603
  H        10.7796513976        9.4027232413       13.9960131736
  C        11.1392511648        7.9786190568       12.6224433203
  H         2.9716388220       -1.5670665933       37.9732786037
  H         3.5749409375       -2.7760921286       37.0192347931
  C         5.2062438515       -1.8960890937       38.0537232646
  H         1.4573516909       -0.2848875613       18.0189541310
  H         2.9880510815       -0.9387491816       18.4205493307
  C         2.1901933897       -1.9165832543       16.6721786446
  H        17.4115173512        1.0807912920       22.1543582412
  H        18.1283093072        2.6488512817       22.7136811100
  C        17.3235595365        1.5058155777       24.2334318898
  S        11.5676252303        6.3876998168       12.2015737447
  C        11.4929139134        8.9495766919       11.5143973024
  H         5.1877013306       -1.3814041120       39.0522975972
  H         5.6413009594       -2.8430232120       38.1076347481
  H         5.9205243444       -1.2449599668       37.5231487925
  H         1.9479288384       -1.6316933147       15.6875439595
  H         1.3556868443       -2.5275251807       17.0331523586
  H         3.1121889508       -2.4960505272       16.6396668389
  H        16.6213292980        0.7479248857       24.5626904571
  H        17.0760301431        2.3352996100       24.8777892115
  H        18.3472471262        1.1631322689       24.4614080782
  C        12.0620524791        6.9435027137       10.5863828570
  N        11.9929699486        8.3009254826       10.4169363182
  O        11.2657772757       10.1585704410       11.6025798065
  S        12.8578042531        5.9348743845        9.3540135890
  C        12.1993886108        8.9920158184        9.0634245981
  H        12.5016722555       10.0229809558        9.3417420105
  H        12.9715824119        8.5289586705        8.4977497306
  C        10.8966604497        9.0524684374        8.2043881151
  H        11.0074735470        8.3507198200        7.4074668805
  H         9.9453874212        9.0146599346        8.7328562551
  H        10.8748659672        9.9642608575        7.7197888992
  H         2.8374941386        4.4557264683       11.8304743867
  C         3.0390519994        3.4116524060       12.0592756036
  H         2.3909377498        3.2560880814       12.9225568691
  C         2.6145901478        2.4565709893       10.9036844876
  C         4.5283002822        3.2876887162       12.4990811233
  C         3.4529862970        2.7685300977        9.6090782934
  H         1.5690217689        2.5625469528       10.8101343810
  H         2.8427981438        1.3616683750       11.2163077036
  H         5.0585423499        3.9843463780       11.8363724374
  H         4.9096715963        2.2376214052       12.5632738477
  H         4.6829668759        3.5954158190       13.5372329779
  C         4.6798913324        1.9137016125        9.5030852682
  H         2.8689644845        2.6105598323        8.7177727599
  H         3.6954657933        3.8319297085        9.5056667496
  C         5.4009754863        1.9706270470        8.1917487494
  H         4.3653219689        0.8547488016        9.6419421495
  H         5.3481895900        1.9971929666       10.3540501426
  C         6.7103473511        2.6831487309        8.3430120186
  H         4.8602377557        2.3308112441        7.3018582552
  H         5.6407046563        1.0165462095        7.8124353040
  C         7.8161624693        1.8649686244        9.1776478598
  H         7.1663311216        3.0039903042        7.4437762057
  H         6.4180257766        3.6171551353        8.8770757221
  C         9.1497860852        2.6363671861        9.3243055090
  H         8.0922300201        0.9527288578        8.6418148538
  H         7.5516363809        1.6028334535       10.2582078352
  C         8.8455963065        4.0553992399       10.0518670831
  C         9.5899134027        3.3550161980        8.0996271036
  C        10.2565806726        1.9357344434       10.1881327303
  C         9.0690077433        5.1624550845        9.2232517433
  C         8.3354648202        4.4592185578       11.3123176258
  C         9.5130891404        4.7266377730        7.9671479627
  C        10.0168530480        2.7461241307        6.9208092898
  H         9.7312741762        1.6598788414       11.1116662599
  H        10.6026719465        1.0317681938        9.8009633755
  C        11.4631361192        2.8761655912       10.5271197997
  S         8.6053010884        6.6530699083        9.9366634711
  C         8.0874746865        5.7583872225       11.4045763262
  H         8.0361456332        3.6598098498       12.0674902916
  C         9.8549389515        5.2646541214        6.7265893980
  H        10.2633432950        1.6914300154        6.9844761720
  C        10.3476826727        3.2661019725        5.6850335418
  H        11.1735761803        3.9037410368       10.6030654905
  H        12.0589212828        2.9335736865        9.5623258403
  C        12.3910520092        2.3251981605       11.6072884507
  C         7.4317160333        6.5222885163       12.5411091507
  C        10.2036718628        4.5570511602        5.5137295541
  H         9.7444016884        6.3585066889        6.5789101640
  C        10.7557425739        2.8444816309        4.4143996679
  H        13.2553330178        2.9685814489       11.6263431670
  H        12.7830961730        1.3657679417       11.3620964104
  C        11.6849164356        2.3408576240       12.9529528782
  C         7.5185278670        7.9187698033       12.7729425378
  C         6.9566086786        5.7066016605       13.6484447295
  C        10.5368276518        5.2428582339        4.2062664453
  C        10.8579636252        3.9205309541        3.5156706326
  S        11.2589981314        1.3894841910        3.7467933486
  H        11.2197434246        3.3487920165       12.8637428860
  H        10.8274770286        1.7107016416       13.0350350289
  C        12.7228232539        2.2303284987       14.1297037257
  N         7.8426567067        8.9162859094       11.8244862967
  C         7.2632653117        8.5157069397       13.9928188298
  C         6.6775836616        6.3507582479       14.8690367726
  H         6.8689122104        4.6452313625       13.5888106172
  C        11.7482157990        6.1920520258        4.5143193389
  C         9.1917864510        5.9007700516        3.7963831951
  C        11.2514812041        3.5055805454        2.2472045397
  C        11.4739157307        2.1558007553        2.1900504453
  H        13.5822056977        2.8257812435       13.7844700422
  H        13.0430524377        1.1898059575       14.2528840691
  C        12.1613118431        2.7414250686       15.4988792688
  S         7.9862582175       10.3382192798       12.5775124122
  N         7.5148113283        9.8795432703       14.0147313808
  C         6.8450965420        7.8001599958       15.1323349195
  H         6.3141137170        5.7642966168       15.6971010322
  H        11.4232363350        7.0598064392        5.0591002832
  H        12.0974940747        6.6103690579        3.5359711914
  C        12.9952395981        5.5162841333        5.1067322430
  H         8.7357707389        6.4798800989        4.5789823942
  H         9.3954013705        6.6228638644        3.0279221395
  C         8.1519551334        4.8204685751        3.1754901666
  H        11.3081661378        4.2362379479        1.4033377168
  C        11.8302714976        1.3472460890        0.9519993076
  H        11.9441896802        3.8533759394       15.4787284225
  H        11.2507080119        2.1143679226       15.6848802627
  C        13.2150868850        2.4819395724       16.6350574157
  C         6.6130895712        8.5047837934       16.3278112733
  H        12.7301307336        4.7883876827        5.9082056679
  H        13.4818118197        4.8268450935        4.3659981755
  C        14.0456984053        6.5371899741        5.6799628650
  H         7.7890905698        4.0629560549        3.9041229781
  H         8.6421288663        4.4187090365        2.3107741785
  C         6.8774718023        5.5076913537        2.5780909063
  C        11.7664404377       -0.0529765034        0.8512964522
  C        12.1460788134        2.0691591579       -0.3250265609
  H        14.2373794127        2.9066961516       16.4767537547
  H        13.3210312991        1.4094434034       16.6101566435
  C        12.6996760053        2.8857553112       18.0648174594
  H         6.7663593456        9.5453130525       16.3432421466
  C         6.1968692490        8.1306244208       17.5712844394
  H        13.4860964258        7.1778388663        6.2912381959
  H        14.6626205166        6.9936866646        4.9132095454
  C        15.0210742692        5.8570260560        6.5917821113
  H         6.1515220742        4.7232735670        2.5293114343
  H         6.4397044223        6.2790191604        3.2489259898
  C         7.0199119551        6.0653991711        1.2186288262
  N        11.5125106443       -0.8742945440        1.9483912855
  C        12.0104673921       -0.7793496729       -0.2774151560
  C        12.3628952830        1.3800522135       -1.5135117260
  H        12.3206513243        3.0998170323       -0.2767415945
  H        13.5852319844        2.7112944584       18.5898064449
  H        11.8698495580        2.3021825239       18.3772563260
  H        12.4072120105        3.9229270955       18.0324961177
  S         5.7874528454        6.6623063813       18.1016738248
  C         6.1752933946        9.1432234586       18.5894608571
  H        15.0788129181        6.5536786004        7.4287217722
  H        14.6813569641        4.9291051430        6.8954711714
  C        16.4072124326        5.6987832567        5.9429459209
  H         7.4817140221        5.2103814951        0.6859030543
  H         7.7657792360        6.8789783578        1.1885666633
  C         5.6770359023        6.5120424868        0.6837663029
  S        11.5516103760       -2.4369216563        1.5260141511
  N        11.9858046326       -2.1828015208       -0.0142429306
  C        12.3936571400       -0.1279443867       -1.4772174950
  H        12.6129659738        1.9204360467       -2.4688899908
  C         5.5943100565        7.3361399367       19.7516302168
  N         5.8428145557        8.6523277029       19.8252002126
  O         6.5139479591       10.3262705329       18.4563999073
  H        16.3768447236        5.3328272042        4.8858550910
  H        16.7913246399        6.7177189119        5.8199673712
  C        17.4211365205        4.8272322853        6.7738587069
  H         5.6366117616        6.3103113389       -0.4087741022
  H         4.8653594363        5.9972587956        1.0863947526
  C         5.5079313323        8.0687833256        0.9420771239
  C        12.7320091076       -0.9478681540       -2.6437067898
  S         5.0481398470        6.5241663698       21.2146918886
  C         5.8034492989        9.4859564490       21.0312829962
  H        16.9545611719        4.0933470437        7.4667189753
  H        17.9433105324        4.2678218976        6.0400138532
  C        18.4751357261        5.6333096056        7.4942169461
  H         5.6432063169        8.5274043953        0.0044709315
  H         6.3745926267        8.4607620288        1.5666548392
  C         4.1165540199        8.4149789782        1.4906630254
  H        12.4267802404       -1.9848694374       -2.6222899975
  C        13.1279064364       -0.5748487560       -3.9046908215
  H         5.0079975150        9.2264271581       21.7510398395
  H         5.5058192215       10.5362785460       20.8284410780
  C         7.1863988690        9.4111484081       21.7499436128
  H        18.9283885766        4.9771607767        8.1832918634
  H        17.8861766020        6.3725774525        8.0312957040
  C        19.4831501043        6.4189787874        6.6170515846
  H         3.8689427834        9.3692639980        1.0304249094
  H         3.3985135321        7.5891111063        1.2411490946
  C         4.1589735098        8.6186045204        2.9584856138
  S        13.8483303468        0.8545930756       -4.4996949206
  C        13.0692823862       -1.7056220108       -4.8867737602
  H         8.0404480995        9.7133863989       21.0995839643
  H         7.2597950941        8.4243061347       22.1657822459
  H         7.2415452223       10.0069356101       22.6485647453
  H        19.0527082446        7.2152855108        5.9561210208
  H        20.2347879178        6.8594618766        7.2040335842
  H        20.0413269000        5.7457353899        6.0589332660
  H         4.6166925118        7.7594725495        3.4002599834
  H         4.7607193585        9.5078959984        3.2308410162
  H         3.1264399112        8.8126675698        3.3429250146
  C        14.0651965539       -0.0658583728       -5.9896272432
  N        13.7711805792       -1.3632856655       -6.0019181830
  O        12.6574201129       -2.8414907399       -4.6174302567
  S        14.7453675762        0.7406557906       -7.4977244391
  C        13.9813621446       -2.2893646822       -7.0618361039
  H        14.0927069170       -3.3301410938       -6.6788458064
  H        14.9423289547       -2.1120291152       -7.5685499972
  C        12.9430174153       -2.1634201258       -8.1353413769
  H        12.9072459577       -1.1286959410       -8.4984394422
  H        12.0411989032       -2.5453154170       -7.8208960921
  H        13.2434443289       -2.7550754934       -8.9161575417
