352
 i =    74400, time =    37200.000, E =        98.5347988088
  H        11.8484835133        6.9754201634       32.6320275605
  C        11.7837159298        5.9107378895       32.4289554637
  H        12.8070974720        5.5277690258       32.1531930668
  C        10.8442527287        5.6789699010       31.2811509434
  C        11.4661707792        5.2812145874       33.7842739327
  C        11.4520564727        5.6972203133       29.9201281328
  H        10.2937382896        4.8001638213       31.5344909644
  H        10.2187854302        6.5848192274       31.3792909240
  H        12.1930585937        4.5174021558       34.0874288035
  H        11.5365723173        6.0036426604       34.6228913381
  H        10.4331870005        4.8651528923       33.8931171187
  C        10.3796744769        5.7015016797       28.8016644499
  H        12.0240227896        4.7626593649       29.8175292504
  H        12.2407719713        6.4233067574       29.8158146545
  C        11.0469971493        5.6505629298       27.3866101050
  H         9.7401220030        4.9171468626       28.9941766402
  H         9.7074607895        6.5650373273       28.8524649934
  C        10.0638602022        5.0354038328       26.4460820768
  H        12.0562260837        5.0934391718       27.3528972654
  H        11.4620075323        6.6169747892       27.1672100230
  C         8.8543244098        5.9016920173       26.2308772731
  H        10.5336829530        5.0789077344       25.5153990652
  H         9.9191700029        3.9807396528       26.6599764276
  C         7.6366423192        5.2738525146       25.5251330764
  H         8.5063023198        6.2716595987       27.1721998399
  H         9.2075870936        6.7592189584       25.7193747015
  C         7.2392530919        3.9798243144       26.2174806996
  C         8.0119235166        4.4255221250       24.2660530852
  C         6.3736184984        6.1581027195       25.3567244234
  C         7.5108963287        2.8023458242       25.4514017815
  C         6.7798513277        3.6511214297       27.5106139506
  C         7.9918106226        3.0754594705       24.1880996146
  C         8.3987073109        4.9683726583       23.0301645648
  H         6.7297162119        6.9991757595       24.7455857721
  H         6.1079189522        6.5581586826       26.3092333613
  C         5.1118573087        5.4923862643       24.7471701772
  S         7.1626911130        1.3621700207       26.3331838364
  C         6.7572215135        2.2794836255       27.7110238944
  H         6.4979810040        4.4340136441       28.1468162908
  C         8.3969671246        2.4207804316       23.0801490574
  H         8.3216269805        6.0403590393       23.0399903380
  C         8.6632655213        4.3349440279       21.8912786374
  H         5.3609092371        5.2288034674       23.7355380185
  H         4.8316796654        4.5989889034       25.2779796150
  C         3.7939882248        6.3060557887       24.5523975793
  C         6.1816372646        1.5999645200       28.9090398530
  C         8.6963594047        2.9991324928       21.8392024170
  H         8.2849972419        1.3290139853       23.1036251034
  C         9.1343568339        4.7338680283       20.6500655827
  H         3.0709635546        5.8355627474       23.9062031471
  H         3.9877177427        7.2404803046       23.9091743930
  C         2.9546649854        6.6648154416       25.7813572049
  C         6.0999003746        0.1869444411       29.2023714922
  C         5.5798531085        2.4826912048       29.9089191658
  C         9.1366308140        2.2357197625       20.6680398513
  C         9.3891010239        3.5669712725       19.8770221868
  S         9.4342587906        6.2114076789       19.8330796518
  H         2.1905834034        7.3289280167       25.4410272822
  H         3.6935506605        7.1301906923       26.4891298127
  C         2.3706033927        5.4501679551       26.4646956268
  N         6.5093222596       -0.8479573306       28.3598381941
  C         5.7302398724       -0.2915284352       30.4350359350
  C         5.2180734499        2.0113834398       31.1207113658
  H         5.4938794504        3.5605361941       29.7458612769
  C         7.9181693306        1.4387585200       20.0969727166
  C        10.4111255797        1.4076783816       20.7553077837
  C         9.7880492339        3.9352457206       18.5657610294
  C         9.8661644266        5.3015735478       18.3929631839
  H         1.6709383156        4.7545043397       25.9317203085
  H         3.2396629908        4.8050595915       26.8090949841
  C         1.7001086082        5.7938924320       27.8360766930
  S         6.2822121198       -2.2967854162       29.1385502854
  N         5.8785411906       -1.6711634755       30.5911168310
  C         5.4519834399        0.5831558573       31.5531717139
  H         4.7917374747        2.6558969393       31.8711288903
  H         7.5766375986        0.6636398709       20.8234336528
  H         8.1808465717        0.9006422338       19.1543301957
  C         6.7723081315        2.3925845938       19.8471137744
  H        10.6426154916        0.8794906641       19.7765035258
  H        10.2394078938        0.6156445815       21.5551870514
  C        11.6955897975        2.1932519283       21.1078881180
  H         9.9953909563        3.1109245212       17.8499681960
  C        10.1157509235        6.0176549090       17.1156677273
  H         0.6899620680        5.3843338073       27.8192564680
  H         1.4743840639        6.8647795721       27.8276708982
  C         2.5343148634        5.4976236819       29.0475297010
  C         5.0693244229        0.0069467783       32.7708621948
  H         6.9734601486        3.1839320265       19.1851741603
  H         6.4466979937        2.9002082498       20.7592651266
  C         5.5361735061        1.5624167563       19.4681390607
  H        11.6024251112        2.4855171363       22.1843781363
  H        11.9068569474        3.2098851550       20.6380281084
  C        12.9592378796        1.3542300461       20.9350158835
  C        10.1899396817        7.3977187730       16.8950508295
  C        10.3094581937        5.2065613026       15.8797243285
  H         2.5872647815        4.4314085424       29.0425574259
  H         3.5685982934        5.8397131000       28.9684834519
  C         1.7882521415        5.8965445239       30.3343537816
  H         4.9359484194       -1.0845877988       32.7884563918
  C         4.8105542053        0.4934580931       34.0917391725
  H         5.1616385510        0.9479533532       20.3052624081
  H         5.8693116116        0.7942901112       18.7540926749
  C         4.3811904337        2.4253993184       18.9720126512
  H        12.9390145405        0.5176270845       21.7515261586
  H        12.8779561316        0.9168200635       19.9649452160
  C        14.3461453010        1.9359998325       21.1882788079
  N         9.9110833531        8.3444807031       17.8831994843
  C        10.4878985436        7.9606057002       15.6414864810
  C        10.5535113181        5.7609368746       14.6237166993
  H        10.1434274094        4.1317973721       15.8442482457
  H         1.5276137184        6.9016122078       30.4559134276
  H         0.8093020689        5.4158004334       30.3918700406
  H         2.4265372337        5.6707711929       31.1459413872
  S         4.6812595749        2.1815308939       34.6434678451
  C         4.7601685812       -0.4506830521       35.2696302461
  H         4.2530817152        3.0811545424       19.8678023239
  H         4.6595655139        3.0234463017       18.0838112787
  C         3.1686246485        1.5656090752       18.8178617327
  H        14.4633398871        2.8557340864       20.5820302944
  H        15.0674891690        1.2186045941       20.8028092011
  C        14.7157009673        2.1258068943       22.7013636097
  S        10.0778435811        9.8499767755       17.1817815113
  N        10.6088651483        9.3488487033       15.7218478183
  C        10.7402812410        7.2609603078       14.4858629591
  H        10.7050946541        5.1356839078       13.7337902742
  C         4.2384250094        1.5368200747       36.2404709467
  N         4.3481943456        0.1689547827       36.3521838769
  O         4.9059387661       -1.7421017965       35.1366021892
  H         2.3204595649        2.3334112318       18.8812106258
  H         2.9795384711        0.9391510806       19.7389978405
  C         2.8814216263        0.7385049330       17.5323631833
  H        13.9036505707        2.2185154070       23.3651080156
  H        15.1879088718        1.1330670482       22.7677369395
  C        15.7391935651        3.2890000397       22.9403526254
  C        10.9726710551        7.9929046891       13.2256854025
  S         3.7569760107        2.4046471069       37.7283927007
  C         4.1312892036       -0.6508950084       37.5581760238
  H         2.5273250886        1.4775156882       16.7276104781
  H         3.8777326722        0.3230959853       17.1745060254
  C         1.9136143887       -0.5031655276       17.7602731064
  H        15.5990095662        3.4478036112       23.9969706778
  H        15.5047037138        4.2189574223       22.4328961075
  C        17.1948837686        3.0248465809       22.4667612900
  H        10.6105880751        9.0278991192       13.3624245306
  C        11.6190019058        7.7101135899       12.0771472663
  H         3.4032211568       -0.1909674089       38.2069381488
  H         3.6004896567       -1.5411399104       37.2102150479
  C         5.4720860915       -1.0468553125       38.2188148271
  H         1.3985797455       -0.7488323323       16.8454522418
  H         1.1701163292       -0.2659454616       18.4728812770
  C         2.6449571930       -1.7406078351       18.1466061763
  H        17.1870170442        2.6818853440       21.4865610894
  H        17.6838754601        3.9880749299       22.3893908223
  C        17.8199216804        2.1092020779       23.4544577943
  S        12.3290393254        6.2284524394       11.6748930623
  C        11.7386617794        8.7381370072       11.0612060858
  H         5.4067982251       -2.0961379897       38.5404455260
  H         6.2806517292       -0.8704511782       37.5238719795
  H         5.7066247228       -0.4302020322       39.0921389611
  H         3.2372007559       -2.1837536899       17.3685828894
  H         1.8934667456       -2.4533951910       18.4408057729
  H         3.3087851595       -1.6838128467       19.0220518463
  H        18.8899811153        2.1950061583       23.2333916322
  H        17.3853382362        1.1202343198       23.3985495890
  H        17.7480092951        2.5352730324       24.4591562205
  C        12.8245983738        7.0462235263       10.1122012810
  N        12.5577207058        8.3555561344       10.0670669932
  O        11.1144431378        9.8092407315       11.1068410875
  S        14.0160156884        6.3631560410        8.9668244680
  C        12.7392830415        9.1599519602        8.8588495628
  H        12.7011660852       10.1936275500        9.1540380638
  H        13.7281940233        8.9416775276        8.4406280491
  C        11.6529597594        9.0479156215        7.8559403268
  H        10.8914311830        8.3887241122        8.2975725685
  H        11.1397289825        9.9868180099        7.6451529184
  H        11.9978062653        8.7054597716        6.9112478311
  H         1.7169235879        1.9234746433       11.8926026174
  C         2.7280571257        2.2993553319       12.1886559142
  H         3.3717460924        1.4722119367       11.9888963802
  C         3.0093810072        3.4374836799       11.2881062970
  C         2.8678596964        2.5291773530       13.6619483942
  C         4.3272481181        3.3402506797       10.5184018170
  H         2.9009369441        4.2799319134       11.9021818254
  H         2.1924650086        3.4625623872       10.6197211970
  H         2.8892004885        1.6141593852       14.3063224729
  H         2.1669719449        3.2845700165       14.0387398465
  H         3.8193848052        3.0570465653       13.7725789049
  C         4.5124244369        2.0724991180        9.6551690168
  H         4.3381487935        4.2241096201        9.8060144424
  H         5.1587844746        3.4776177053       11.1742844262
  C         5.2026523338        2.2222285911        8.2589050218
  H         3.5862392708        1.5726611950        9.2496685864
  H         5.0622013937        1.4120140837       10.3697817950
  C         6.5792727253        2.8615251546        8.3529877117
  H         4.5441306600        2.6423965505        7.5599704555
  H         5.4446574671        1.2541444856        7.7817812060
  C         7.6165781064        2.1210743103        9.1613468100
  H         7.0101488068        3.1439428446        7.3839756982
  H         6.4280892543        3.8522433463        8.8008321492
  C         8.9250161303        2.8963745481        9.3425794615
  H         7.6159197293        1.0742737855        8.8251575154
  H         7.2942448821        1.9639140239       10.1553311450
  C         8.6516412518        4.2836341722        9.9701362574
  C         9.4637805223        3.5178347631        8.0471189296
  C         9.9975985780        2.0594129944       10.0695242587
  C         9.0388498427        5.3566248321        9.1974821711
  C         8.2778566138        4.7072675092       11.1904855327
  C         9.5019542150        4.9198585741        7.9538923030
  C         9.9629108205        2.8946474632        6.8950465320
  H         9.5578719691        2.0923215119       11.0537078979
  H        10.0484477455        1.0103143361        9.8641199854
  C        11.4003061294        2.6982103330       10.1071224970
  S         8.9180907942        6.8638233726       10.0468154431
  C         8.2245597653        6.0294523195       11.3532378229
  H         8.0481344200        3.9250226743       11.9034399658
  C         9.9834555331        5.5303316278        6.8554096474
  H         9.8700517126        1.8153325936        6.8233136476
  C        10.3930556384        3.5485259039        5.7513706299
  H        11.3922214333        3.7679059878       10.1890661051
  H        11.6884819549        2.6792958933        9.0556969417
  C        12.4361868706        2.0383060123       10.9824475407
  C         7.7978428330        6.6720450252       12.6560975094
  C        10.3945709599        4.8711703693        5.6533229945
  H         9.9909832949        6.5954822673        6.8310677192
  C        10.8182796474        3.1477648772        4.4756571009
  H        13.4082322171        2.5919363567       10.8377594035
  H        12.6425238029        1.0645810267       10.5281746094
  C        12.0791967584        2.0076756921       12.4836378663
  C         7.8464410006        8.0951878214       12.9161648372
  C         7.3533748665        5.7848700246       13.7292587899
  C        10.7186372760        5.5955985117        4.3087882869
  C        11.0309927707        4.2288334868        3.6623914039
  S        11.1034471946        1.6397270745        3.7084551749
  H        11.5046374641        2.9289499149       12.7126748865
  H        11.4430775126        1.1510247716       12.6956827450
  C        13.3347802638        1.8402736342       13.3874501375
  N         8.2467293776        9.0364745437       11.9770820051
  C         7.4733785946        8.6326539406       14.1037949008
  C         7.1805446743        6.3581972331       15.0173624630
  H         7.3684456737        4.7359736359       13.6377598229
  C        12.0466671225        6.4007478078        4.4546449024
  C         9.5792987043        6.4190191092        3.6220832735
  C        11.4517378435        3.8114289292        2.3949155393
  C        11.4835054860        2.4592296846        2.2346418943
  H        13.8726304326        2.7996655068       13.3464372176
  H        14.0329590333        1.2848396358       12.7925694863
  C        13.1326585913        1.2676275116       14.7957307423
  S         8.1546337715       10.5501675273       12.6841768544
  N         7.5248817753       10.0027777096       14.0966546428
  C         7.1693978277        7.8636741579       15.2566098912
  H         6.9699426021        5.6690516772       15.8347147962
  H        11.9820242902        6.9661575543        5.3189209458
  H        12.1772369112        7.1492338710        3.6352663706
  C        13.2795033939        5.4753003606        4.5546837371
  H         9.3050618170        7.3402928772        4.1460256800
  H         9.9831733484        6.7091702624        2.6310478423
  C         8.2599201078        5.6461038512        3.5255853347
  H        11.7311914401        4.5941838684        1.6826619682
  C        11.7090637813        1.7961027216        0.9123673003
  H        12.7071325511        0.2788254383       14.6968589172
  H        14.0919441210        1.0902420472       15.1914189014
  C        12.3860226453        2.2369620018       15.6882144166
  C         7.0277998108        8.4784345124       16.5362158062
  H        13.0847396460        4.6953754042        5.3196738447
  H        13.5517506598        5.0573409209        3.6054369304
  C        14.5334299995        6.1942578164        5.0741003004
  H         8.0011330165        5.1743602217        4.4730460803
  H         8.3338118616        4.9123506755        2.7648633060
  C         7.1611610206        6.5720042287        3.0665548752
  C        11.7696893753        0.3543432567        0.7417628968
  C        11.9892551477        2.4669203037       -0.3410517241
  H        11.3613515873        1.9907140404       15.7967485454
  H        12.3279440082        3.2867219891       15.2992024975
  C        13.1039298830        2.3525038212       17.0696363737
  H         7.2219286450        9.5519821551       16.5795227332
  C         6.8679410013        7.9493322626       17.8061165629
  H        14.2831438710        6.8568376481        5.9153242453
  H        14.9393068908        6.8697376936        4.3047904357
  C        15.6052652542        5.2335816419        5.4667528437
  H         6.9342082787        7.1657144014        3.9069790676
  H         7.5329874828        7.3643180667        2.4333853318
  C         5.9305267092        5.8313024989        2.5100422547
  N        11.3521278724       -0.5798783505        1.7012526122
  C        11.9279594630       -0.2654989684       -0.4728693574
  C        12.1749933126        1.8803885685       -1.5646448752
  H        12.0754115321        3.5509032911       -0.3197772878
  H        13.9517962807        3.1413067347       16.9871332227
  H        13.4075706608        1.4046059481       17.4492190763
  H        12.3773021470        2.7260587520       17.7547341311
  S         6.4959003870        6.2607983236       18.2210344810
  C         6.7869229651        8.8966632614       18.9361156587
  H        15.3112911973        4.5080079481        6.1812871517
  H        15.8924775231        4.7544359769        4.4944166950
  C        16.8245062409        5.9959417399        6.0687667096
  H         5.1369183350        5.7882288338        3.2635311391
  H         6.1885017459        4.7477964649        2.2694483913
  C         5.2374925483        6.6772040527        1.4038912483
  S        11.5860481515       -2.0393235852        1.1863318000
  N        11.8415190089       -1.6097477019       -0.3696352548
  C        12.2548197058        0.3852549940       -1.7182791178
  H        12.5062786978        2.4206124710       -2.4448230592
  C         6.1346990911        6.9041305757       19.8243185222
  N         6.2952494690        8.2423284671       19.9873504363
  O         7.0290416690       10.1084552293       18.8255152788
  H        17.3842709092        6.3743052459        5.1856109205
  H        16.5035048474        6.8498460086        6.6501867709
  C        17.6990649312        5.1681648869        6.9418581684
  H         5.7979721856        6.6621609726        0.4691990114
  H         4.3119476804        6.1613962093        1.1691936819
  C         4.8760881918        8.1086326373        1.8563068499
  C        12.3862068176       -0.3143965684       -2.9761003519
  S         5.6109675623        5.9653548871       21.1930274084
  C         6.0811574844        8.9036320549       21.2607805306
  H        17.2665292816        4.9077799603        7.9318140579
  H        17.7773411360        4.1690798369        6.4296582058
  C        19.0950732003        5.7359520183        7.0946082155
  H         5.8175757294        8.6875551781        1.6635476068
  H         4.8146463963        8.1383500868        2.9607121075
  C         3.6016555803        8.6514357435        1.1794948361
  H        12.0222469546       -1.2908211760       -2.9889177838
  C        13.0513449708       -0.0084691626       -4.1443886672
  H         5.2147566950        8.5219803448       21.8304988146
  H         5.9003809923       10.0498877735       21.0934583987
  C         7.4577566189        8.6446135272       21.9075594764
  H        19.5539996658        5.4822410612        8.0328665704
  H        19.0210930327        6.8696377648        7.0388705257
  C        19.9291140704        5.2864233060        5.9592341905
  H         3.5556510096        8.3524367143        0.1914100367
  H         2.6858043957        8.1937785381        1.5696458527
  C         3.4532796722       10.1721306135        1.2896030077
  S        13.6197352949        1.5811699606       -4.6148988820
  C        13.1269442216       -0.9645701643       -5.1343802526
  H         8.0053484528        9.4716681300       22.3503458889
  H         8.1051440047        8.1134827444       21.2163266837
  H         7.2189396059        8.0094311025       22.7618123937
  H        19.9186297047        4.2502802520        5.7523981468
  H        19.5600015578        5.8379577941        5.0945151613
  H        20.9717746652        5.5650741258        6.1082041957
  H         3.3577445935       10.6494060704        0.2902909785
  H         2.5721728553       10.4309711170        1.8472425681
  H         4.4292765933       10.5488239725        1.6012297725
  C        13.9785097376        0.7990168910       -6.2183975291
  N        13.8344959624       -0.5321437530       -6.1690939923
  O        12.7640141334       -2.0977023290       -4.9676877056
  S        14.8831728272        1.5318003414       -7.6045008873
  C        14.0592257367       -1.2966243675       -7.3968136387
  H        14.2668442358       -2.3454187913       -7.1908575189
  H        15.0054121581       -1.0180410426       -7.9397147793
  C        13.0131716051       -1.1568257827       -8.3727725709
  H        12.0497490489       -0.6842623606       -8.0256559756
  H        12.7291626606       -2.0684602460       -8.8190274055
  H        13.2883044901       -0.5696406967       -9.3030412239
