352
 i =    18700, time =     9350.000, E =       101.6995414153
  H        10.9077450955        4.2035733572       31.8264600567
  C        11.1512830804        5.2257006673       31.8984058866
  H        10.2302221675        5.7987061532       31.8085701232
  C        12.1674949907        5.6027270675       30.7961293587
  C        11.7179557886        5.5924194209       33.3102950548
  C        11.6984258306        4.9151121101       29.5108220750
  H        12.2500891815        6.6355368365       30.7286166170
  H        13.1623721109        5.3128909548       31.1889158299
  H        11.7640642783        6.6010185639       33.4333104332
  H        11.0049516751        5.1166294689       33.9540592024
  H        12.6751405318        5.1090210035       33.3725140072
  C        10.4726025543        5.4580760489       28.7989955227
  H        11.5526965144        3.8661562496       29.6914590633
  H        12.4668167761        4.8245998775       28.7517732786
  C        10.6401305433        5.4740127108       27.2813100397
  H         9.6858992327        4.7322137586       29.0658920939
  H        10.3218023336        6.4527299466       29.2415274487
  C         9.5185178794        4.7924592876       26.4968095708
  H        11.6518526513        5.1730475527       26.9875553922
  H        10.7139620428        6.5266188269       26.9990194050
  C         8.3219377860        5.6891780311       26.0413962841
  H         9.9010612054        4.3733898345       25.5467967069
  H         9.0618572717        4.0459788010       27.0296788430
  C         7.2073752404        4.9517818182       25.3589559414
  H         8.0194675366        6.2005722545       26.9926333941
  H         8.8044060883        6.3881140893       25.3573754199
  C         6.8568909780        3.7009244785       26.1219185716
  C         7.6112110105        4.2143547956       24.1309553806
  C         5.8721855054        5.7814926387       25.3091796593
  C         7.0555285820        2.5181053722       25.3432813961
  C         6.4243827173        3.3659612364       27.3950021833
  C         7.6110023473        2.8906881158       24.1219453701
  C         8.1107453538        4.8147804552       22.9981331243
  H         6.1261035588        6.7615091246       24.8249781083
  H         5.5645546221        5.9492677041       26.3418288301
  C         4.7342505341        5.1479621665       24.5310806922
  S         6.5289986318        1.1101422977       26.0971229906
  C         6.2067605353        2.0608086276       27.5661454280
  H         6.3490624881        4.0711460484       28.2355651432
  C         7.9828786198        2.2465903139       22.9688809125
  H         8.0392756164        5.8826825236       23.1474084731
  C         8.5315393684        4.1973773891       21.8744784281
  H         4.9268127002        4.8719284642       23.5032626392
  H         4.5170176827        4.2061667602       25.0086770855
  C         3.4103136893        5.9950085630       24.5535593798
  C         5.7324317932        1.4308886333       28.8594689382
  C         8.4595327383        2.8343838776       21.7686278885
  H         7.9676195065        1.1171474502       22.9097004423
  C         8.9389953435        4.6097101796       20.6108285042
  H         2.6363970217        5.4051071636       24.0727814034
  H         3.4539078670        6.8826699675       23.9881889622
  C         2.8354699532        6.3353704081       25.9134963322
  C         5.6732169965        0.0359926839       29.0792461419
  C         5.2716037346        2.2662675772       30.0118432042
  C         8.8588584021        2.1743419105       20.4457280004
  C         9.1466156937        3.5030480538       19.7191554045
  S         9.1144190944        6.0995637599       19.9006868665
  H         1.9124459417        6.8679298602       25.6941952926
  H         3.3943410373        6.9499508879       26.6220879359
  C         2.1792487885        5.1126285686       26.7164605832
  N         6.0337341110       -0.9527513395       28.1534189193
  C         5.4507965007       -0.4804298975       30.2787329854
  C         4.9282648142        1.6949234807       31.2552674100
  H         5.1510277906        3.3493659831       29.8569467298
  C         7.6804167780        1.3629259406       19.7732622170
  C        10.1519359559        1.3900356515       20.5039545001
  C         9.5426559792        3.9401806156       18.4724354440
  C         9.5890871674        5.3172747373       18.4719271330
  H         1.2112427462        4.7645890007       26.3429060392
  H         2.8543699416        4.3514596061       26.5081895368
  C         2.1860716033        5.2865621961       28.2501124055
  S         5.9352500023       -2.3952958963       28.9063764534
  N         5.5200846917       -1.8450035021       30.3969582780
  C         5.0943215490        0.2241578077       31.4552600361
  H         4.5601951382        2.3466096088       32.0111234401
  H         7.2315054432        0.6865466709       20.5641131075
  H         8.0856104592        0.7796373616       19.0110485971
  C         6.5665101582        2.2272985622       19.2177743464
  H        10.4214882542        1.0968921872       19.5196481679
  H         9.9145828923        0.4472540231       21.0393186380
  C        11.3490802600        2.1043904611       21.1786425578
  H         9.7149047334        3.2216340675       17.6901317078
  C         9.8941472914        6.0564730809       17.2071342424
  H         2.5703454569        6.1660709670       28.6293587856
  H         2.9938652186        4.5842348955       28.5392988809
  C         0.6933848834        5.0464184270       28.8315643933
  C         4.7443061450       -0.4449546003       32.6605479270
  H         6.8127950981        2.8584909149       18.3094938260
  H         6.1998986846        2.8799405714       20.0484807603
  C         5.4363327345        1.3759064141       18.7749694986
  H        11.3025446987        2.0474048066       22.2528126249
  H        11.3160185939        3.1594542136       20.9569705211
  C        12.6809283143        1.5531824943       20.6528200468
  C         9.8240075304        7.4674759057       17.0836220121
  C        10.2971422013        5.3208234928       15.9765556935
  H        -0.0373871229        5.7234076212       28.3241487632
  H         0.5353577315        3.9731667279       28.9112293318
  C         0.6388542843        5.4241645649       30.2873578149
  H         5.1550540263       -1.3860094967       32.7902235720
  C         4.3989962201       -0.0667221483       33.9677762440
  H         5.4002671766        0.5428847058       19.5126074153
  H         5.6679435584        0.8863176345       17.8073408438
  C         4.0521002808        2.0671177309       18.6873989264
  H        12.8250448895        0.4753093512       20.8511961893
  H        12.6521680999        1.6212617552       19.5636574351
  C        13.8684908715        2.3215382258       21.2221607149
  N         9.3537625771        8.4086323309       18.0851886230
  C        10.1902646017        8.1257017790       15.9165086762
  C        10.6479449933        5.9727914371       14.8062199358
  H        10.1323704989        4.2658944821       15.9104421207
  H        -0.1208516118        4.9550148179       30.8664552588
  H         1.6340954635        5.3066379492       30.7283730351
  H         0.5006178853        6.4579979936       30.3067266968
  S         4.2146736427        1.5419837664       34.4712245199
  C         4.3231002993       -1.0592805052       35.0202908072
  H         4.0181649357        2.8756796377       19.3778378864
  H         3.9087886198        2.4261532446       17.6972213307
  C         2.9632710258        1.0999576291       18.9201169776
  H        13.7647572083        3.3089044276       20.8041929693
  H        14.7908879254        1.8828448501       20.7496643880
  C        13.9038327503        2.3738410578       22.7552216654
  S         9.6004384331        9.9104607637       17.5993353205
  N        10.1038560021        9.5224005578       16.0790917774
  C        10.6387751391        7.4901285356       14.7493627854
  H        10.7788804534        5.3892790279       13.9141163186
  C         3.9681942558        0.8238108136       36.0682087628
  N         4.0948116499       -0.5170133556       36.1491961965
  O         4.5892606061       -2.2441337743       34.8827837333
  H         2.0884000332        1.6710653525       19.4242291068
  H         3.3491673247        0.4485123767       19.7372843869
  C         2.5317693947        0.1928048130       17.6716929317
  H        13.2015144434        3.1062161506       23.1413495959
  H        13.6880292490        1.4053780257       23.2477213986
  C        15.2171124425        2.9954445744       23.2638727525
  C        10.7926401859        8.2933947300       13.5968437814
  S         3.7096781713        1.8036465625       37.5248531984
  C         3.9373397134       -1.1280130154       37.4509978140
  H         2.0137313616        0.8012763270       16.9150378850
  H         3.3425292616       -0.1633775624       17.1332687433
  C         1.5518793460       -1.0014156901       18.0774098142
  H        14.9171837750        3.5026420985       24.1613065437
  H        15.6020822461        3.6244258582       22.5038347816
  C        16.3955320299        2.0403590060       23.6799927854
  H        10.5749995910        9.3417975550       13.6920627896
  C        11.4118691230        8.1239838245       12.4136898511
  H         3.0392501963       -0.7148593255       37.9991664459
  H         3.8076589396       -2.2304105304       37.3450827345
  C         5.1311297075       -0.9511618088       38.2957700428
  H         0.5639228006       -0.6092134455       18.0965434541
  H         1.8419602783       -1.4614175416       19.0043739032
  C         1.5188947517       -2.0987672680       17.0804439695
  H        16.7479891642        2.3735838283       24.6944542847
  H        15.8992277995        1.0636341639       23.7421736785
  C        17.6334055805        2.1659615393       22.7071912063
  S        12.0359058481        6.6524340862       11.7697902243
  C        11.5035521360        9.3311932042       11.5549506591
  H         5.9667549299       -0.5587876458       37.7379258096
  H         5.0031232821       -0.4151360044       39.2051961073
  H         5.4626694452       -1.9205575614       38.7215684870
  H         0.8830832529       -2.9598262007       17.4446990995
  H         2.5434740838       -2.5655083847       17.0203636454
  H         1.1713761301       -1.7423293685       16.0774349763
  H        17.2369987922        2.0563916732       21.7558983483
  H        18.4489062054        1.5600589616       22.9187813000
  H        18.0510945590        3.1130789820       22.7385072931
  C        12.2357771195        7.5812549690       10.2310090523
  N        11.9759047671        8.9155542411       10.3840769417
  O        11.2614730481       10.4732678895       11.8465795525
  S        13.1105057036        7.0071210303        8.7798918663
  C        12.0727206277        9.8514394623        9.3580852295
  H        12.1472449303       10.8492452196        9.6707425581
  H        12.9472578139        9.7308371291        8.7893471154
  C        10.8473959018        9.8698911083        8.3401514353
  H        10.7660009664       10.9171251349        8.0717888487
  H        10.9469394748        9.1443460801        7.4066082877
  H         9.8918944810        9.7012099386        8.8488837020
  H         4.7384779496        2.1097436799       12.3529533691
  C         3.9455519069        2.8277283241       12.4725011110
  H         4.5174092634        3.6803524359       12.3208378829
  C         2.9446927688        2.7917013365       11.3125118175
  C         3.2549648971        2.8307737730       13.8511880613
  C         3.7239861352        3.1062111464       10.0424249813
  H         2.1878859860        3.5749430714       11.4630200467
  H         2.3870602791        1.8332436632       11.2634803748
  H         2.2275170938        3.0325600636       13.8699692068
  H         3.6215793025        3.6396416721       14.5155902715
  H         3.3087215134        1.8917132691       14.2911636535
  C         4.4398560561        1.8476259272        9.4673379947
  H         3.0617076195        3.4319135563        9.2425700958
  H         4.4764076018        3.8887900967       10.2488673633
  C         5.4680675115        2.0559446308        8.3253293729
  H         3.6856582178        1.2742431058        8.9745545130
  H         4.9211170201        1.2198817939       10.2289386424
  C         6.6783233602        2.8519967882        8.6302966990
  H         5.0121192382        2.4266088423        7.3598715293
  H         5.7701195183        1.0489005967        7.9960186707
  C         7.8392088475        2.0951863392        9.2924720253
  H         6.9774515621        3.1663216057        7.6473253398
  H         6.3854872376        3.6847079581        9.2415876329
  C         9.1577756394        2.8585887285        9.3004562816
  H         7.9765250012        1.2068862941        8.6475428028
  H         7.5201923568        1.6350808999       10.2373564027
  C         8.9026747325        4.2286545761       10.0591095382
  C         9.5390264009        3.5759847739        8.0595316557
  C        10.3463117452        2.1149593518       10.0055989586
  C         9.2352559678        5.2702131694        9.2779738949
  C         8.5726578411        4.6126249307       11.3402816303
  C         9.5938552506        4.9393992024        7.9475080723
  C         9.8157594710        2.9535193077        6.9266865431
  H         9.9962652607        1.7684096194       10.9846645230
  H        10.5452192275        1.2316798391        9.4397462550
  C        11.6503904373        2.8689128379       10.1624426031
  S         8.8724887966        6.7451404601        9.9415637145
  C         8.4137714749        5.9567397152       11.4061342898
  H         8.3824405823        3.8123501502       12.0325682688
  C         9.9036614041        5.6051564965        6.7744663491
  H         9.6305263045        1.8935136636        6.8744273031
  C        10.1793185971        3.5426316395        5.7465510403
  H        11.4658535271        3.8006849357       10.7299552678
  H        11.8655421842        3.1171235946        9.0644390876
  C        12.6945762024        2.1098911313       11.0100479673
  C         7.8142921258        6.6889116369       12.6038842380
  C        10.2512203879        4.9122935421        5.6124193870
  H        10.0039294314        6.6910621786        6.6866991547
  C        10.5412470026        3.0732260059        4.4767018946
  H        13.6615933609        2.4820082756       10.9112199748
  H        12.8505788663        1.0957921871       10.6646866167
  C        12.4124836280        2.2220892426       12.5137405991
  C         7.7205736610        8.0765536275       12.7554848719
  C         7.3770053031        5.7919725112       13.7372547395
  C        10.7537843425        5.5382123339        4.3165688085
  C        10.8544062513        4.1602613386        3.6303781893
  S        10.9574746584        1.5676432541        3.8209975056
  H        12.2374826693        3.2231201404       12.8650379418
  H        11.5393540356        1.6775080215       12.7664280831
  C        13.6057836116        1.7225429635       13.2460810781
  N         7.9506822173        9.0507670825       11.7446819821
  C         7.2886060499        8.5968987492       13.9244214672
  C         6.9472707307        6.3565769140       14.8974203189
  H         7.2748996999        4.7380432649       13.6084137453
  C        11.9927559697        6.3156400288        4.5726171593
  C         9.6468803349        6.3845691833        3.6511771641
  C        11.2116621135        3.7149696849        2.3840214339
  C        11.2371052565        2.3481009635        2.2966759426
  H        14.1907938746        2.5824027691       13.5476122109
  H        14.2855958633        1.1681269944       12.6969642632
  C        13.1497863564        1.0284777265       14.5690065004
  S         7.8354960019       10.5201006758       12.4871856709
  N         7.4166801919        9.9613907510       13.9801921414
  C         6.9120208402        7.8217388270       15.0809849219
  H         6.6499393299        5.7273933589       15.6678996822
  H        11.6779386666        7.1749499883        5.2153449445
  H        12.4277705611        6.7970321789        3.6758590841
  C        13.1255236437        5.4095924108        5.0767293093
  H         9.2772839040        7.1620208104        4.3683394887
  H        10.1406077926        6.9311319408        2.8317341455
  C         8.3679693171        5.6203985089        3.2433116416
  H        11.5615124701        4.3510924015        1.6131372816
  C        11.5602154894        1.5711584672        1.0830929592
  H        12.4021245668        0.3082471426       14.3677244458
  H        13.9804630455        0.5025508786       14.9520238805
  C        12.4236620383        1.9416513094       15.6122880846
  C         6.6720098986        8.5256783659       16.2928119592
  H        12.7881492878        5.0035107806        6.0098255631
  H        13.2921030027        4.6130080771        4.2853051144
  C        14.4867467925        6.1923171182        5.2285007556
  H         7.8838675602        5.0691048012        4.0713425280
  H         8.5852064978        4.8629370694        2.4791755833
  C         7.2372147211        6.5086953190        2.6366989099
  C        11.7439660288        0.1670692990        0.9540425778
  C        11.7733039736        2.3609679677       -0.1145467783
  H        11.6122700321        1.3320375466       16.0945754703
  H        11.8863026127        2.7205119694       15.0824547278
  C        13.4629797849        2.5581913377       16.5877641461
  H         6.7735819479        9.5599801326       16.1760594876
  C         6.3727016468        8.1313547860       17.5695409063
  H        14.2946860646        7.0763508266        5.8630728843
  H        14.8549908748        6.3934967708        4.1670135365
  C        15.5698417887        5.3088367425        5.6643209424
  H         7.1343859215        7.1923713301        3.4306763673
  H         7.5592738149        7.0207923756        1.7884236099
  C         6.0138497888        5.6507394692        2.4588471376
  N        11.5473074528       -0.7744409805        2.0080913471
  C        11.9640308243       -0.4820479396       -0.3042413977
  C        12.0516030731        1.7276142323       -1.3479643458
  H        11.6910041569        3.4085539262       -0.0915656761
  H        14.4295711256        2.9231119432       16.1310328896
  H        13.6873701269        1.7501593853       17.1826556060
  H        13.1063118618        3.3406557745       17.2096421501
  S         5.9681273819        6.4725037715       18.0579422438
  C         6.4410668655        9.1015860469       18.6941464898
  H        15.1326242299        4.5820533411        6.3106062856
  H        15.9082046407        4.7565165251        4.7740562477
  C        16.6710845536        6.0600884315        6.3193209970
  H         5.7460243961        5.3270776053        3.4468693703
  H         6.3310726664        4.7223103324        2.0054727041
  C         4.8603296603        6.0804656478        1.6027986279
  S        11.6121383378       -2.2422809178        1.3369723710
  N        12.0094145227       -1.8510875541       -0.1374319726
  C        12.1823488304        0.2584058823       -1.4843859596
  H        12.0528962863        2.3416480100       -2.2439930992
  C         5.8688582967        7.1038708934       19.7453039631
  N         6.1134117862        8.4422799385       19.8321875099
  O         6.8182938013       10.2563994783       18.5328597751
  H        17.3821898933        6.6578978682        5.6854795332
  H        16.4245406990        6.9723368750        6.7352243820
  C        17.4338612996        5.3418128265        7.3645255234
  H         5.0521712293        6.1083895633        0.5464984072
  H         4.0595574083        5.3980966030        1.7340416225
  C         4.3622506982        7.4727650128        2.0587590686
  C        12.5596180883       -0.4512701057       -2.6845359760
  S         5.4347671154        6.1980614515       21.2030052082
  C         6.1965360915        9.2039651237       21.1041999206
  H        16.9711630370        5.6135186579        8.3312724867
  H        17.5443242965        4.2707160342        7.3978814089
  C        18.7963904780        5.9713882049        7.5218303969
  H         5.0441288852        7.8152142661        2.8687058295
  H         3.3823551788        7.4736089995        2.4198743608
  C         4.5921179778        8.5560583578        1.0291720178
  H        12.4420319317       -1.5528523475       -2.5887701641
  C        13.1199431888        0.0051892568       -3.8751088043
  H         5.3848241156        8.6764619124       21.7128899507
  H         5.6958187407       10.2214928657       20.9163422696
  C         7.6455869622        9.2436423379       21.6587776760
  H        19.1765634729        5.4780560138        8.5328705617
  H        18.7281665254        7.0455515678        7.5402070448
  C        19.7605039552        5.5987661542        6.3569764943
  H         5.5436376774        8.4615842053        0.5634640848
  H         3.9115551693        8.3190253946        0.1772126106
  C         4.3258635528       10.0078839624        1.4733586402
  S        13.7721487127        1.5696791578       -4.2999765863
  C        12.9786095195       -0.9534474886       -5.0033574649
  H         7.8990111558        8.2496114716       21.9239052738
  H         7.8345369061        9.8298511502       22.5912666650
  H         8.3745801649        9.5075119359       20.9508082730
  H        19.4001075341        4.6275949284        5.9977850331
  H        19.7722302607        6.2637012199        5.5028038841
  H        20.7340168427        5.4306906233        6.7494961874
  H         3.8635332064       10.0284285108        2.4210517462
  H         5.2273472899       10.6947289681        1.4520570057
  H         3.5783896253       10.5512240287        0.8145279347
  C        13.9815611603        0.8830332850       -5.8557269329
  N        13.6243065105       -0.4117350392       -6.0309663600
  O        12.4623661912       -2.0112105435       -4.9213730468
  S        14.5806639323        1.6541887278       -7.2842025552
  C        13.7229127646       -1.1638656116       -7.3203570189
  H        13.9876719412       -2.1640086555       -7.1311757690
  H        14.6934010204       -0.8455417564       -7.8685400494
  C        12.4646844379       -1.0229069868       -8.1265469343
  H        12.1961939599        0.0268352535       -8.2697777607
  H        11.5702218059       -1.5979832804       -7.7083269102
  H        12.6319028392       -1.5005057390       -9.0802041376
