352
 i =     3800, time =     1900.000, E =       193.4395148220
  H        11.1363243072        7.2119076375       32.4110949161
  C        11.3230636669        6.2794001392       31.9622172355
  H        12.4164516230        6.3238388831       31.7510641457
  C        10.5944459701        6.4634395224       30.6040582626
  C        10.8634124404        5.1588905983       32.8216176169
  C        11.1756871923        5.6632616795       29.3860805300
  H         9.5927086943        6.2981619583       30.8489291543
  H        10.4887414148        7.5537345825       30.5201251636
  H        11.0217079011        4.1774951607       32.3331928068
  H        11.4608695421        5.0088179448       33.6996556116
  H         9.7220561003        5.1209235324       33.0668248041
  C        10.0470722034        5.2027362959       28.5441095863
  H        11.7914858553        4.9200416728       29.6378869809
  H        11.8740236366        6.3178240221       28.8830084086
  C        10.5621419346        5.0460442818       27.1738282427
  H         9.7386988443        4.1636813425       29.0443250986
  H         9.2509631945        5.9185335919       28.5889074874
  C         9.5078484824        4.3334870159       26.1907507275
  H        11.5362051042        4.5264002435       27.2310759587
  H        10.5791951448        6.1408590770       26.9371789217
  C         8.3505040212        5.3710721796       25.8528292952
  H         9.9989144680        3.7884763854       25.3298036020
  H         9.1522202266        3.5230645672       26.7518599415
  C         7.1556035766        4.6540450063       25.1947802682
  H         8.0434832177        5.8681974079       26.7144778961
  H         8.6054946918        6.1934522605       25.2422336508
  C         6.9232470066        3.3554432796       25.8876895760
  C         7.6108786087        3.9592324263       23.9442586556
  C         5.9209279814        5.5667470756       25.0771473402
  C         7.0391227794        2.2349338442       25.0808711560
  C         6.3868735037        2.9765355604       27.1426436295
  C         7.6426187562        2.6064744745       23.8601999148
  C         8.1373185396        4.5434534589       22.8317392650
  H         6.2999673064        6.4002855092       24.5792641101
  H         5.7356672548        6.1895551025       25.9913584085
  C         4.6824479926        4.8706863012       24.4945999830
  S         6.6488471075        0.7350756860       25.9658613761
  C         6.1799725618        1.6946181908       27.2949911732
  H         6.4043949274        3.6473410998       27.9649978302
  C         8.1116062103        1.9624666662       22.7640057500
  H         8.1916606014        5.6365499680       22.9204233261
  C         8.3846621043        3.9506454039       21.6734920892
  H         5.0142854901        4.2944559359       23.5991238684
  H         4.3266356405        4.1179404376       25.0579996988
  C         3.4774810795        5.7552061456       24.2387378377
  C         5.6978503577        1.0983640643       28.6009552229
  C         8.4568163924        2.6205418740       21.5845401931
  H         8.0588838310        0.8595594348       22.7048727949
  C         8.7497634573        4.3762856184       20.4352016070
  H         2.7063105817        5.2168563995       23.7214122348
  H         3.6379390683        6.7319517661       23.7060181384
  C         2.6479168127        6.2411156401       25.4955739270
  C         5.6823021330       -0.2701143932       28.8808569039
  C         5.3205556136        1.9882096871       29.7932079942
  C         8.8377722861        1.9272621992       20.2707575291
  C         9.0920033536        3.3070247127       19.6057652051
  S         8.9092163304        5.9178206882       19.6839281155
  H         1.8815588357        6.8841680085       25.1295068592
  H         3.2237913483        6.9029671921       26.0989761088
  C         1.9457697454        5.0095435396       26.1172478681
  N         5.8467936403       -1.3042870556       27.9195717128
  C         5.3596160897       -0.7360099447       30.1786462570
  C         5.0322354836        1.4860164175       31.0058322550
  H         5.0348130175        3.0023806520       29.6148481695
  C         7.6746757258        1.0143328119       19.5727295316
  C        10.1086395072        1.0562073105       20.5549514423
  C         9.4450521612        3.7432289592       18.3270564052
  C         9.3494860971        5.0882793127       18.1722793309
  H         1.0852308902        4.7690403226       25.3693860829
  H         2.4998265102        4.1157723247       26.0276561688
  C         1.4617982349        5.3710536752       27.4677953204
  S         5.8383881298       -2.7109827683       28.6746370758
  N         5.4564692953       -2.2204632168       30.1596365898
  C         5.0236314706        0.0123073262       31.2763351861
  H         4.8003354679        2.0588987520       31.9202527920
  H         7.2435536519        0.3742918153       20.3383675391
  H         8.1288376051        0.3167307236       18.8397421365
  C         6.6378436756        1.9265670729       18.9356982648
  H        10.2985912780        0.4631270973       19.7141703361
  H         9.7576304144        0.4512374246       21.3907683110
  C        11.2578165613        1.9471021710       20.9240245692
  H         9.7856664061        2.8731103917       17.6792743591
  C         9.6919142426        5.9189559596       16.9399903820
  H         0.7142379240        4.7616239127       27.9181089662
  H         0.8833758323        6.2842519159       27.4235337892
  C         2.5225770807        5.4879238511       28.5232691549
  C         4.8930283608       -0.6004481607       32.6132018824
  H         6.9784150569        2.3179062464       18.0141787561
  H         6.3481750225        2.7564360674       19.5410804396
  C         5.4250133575        0.9765662235       18.6354681464
  H        11.1106332932        2.4221182479       21.8555958783
  H        11.3640115961        2.7620042396       20.1768696296
  C        12.6553780471        1.2475005497       20.9379369196
  C         9.6740785206        7.3359194857       16.9322870840
  C         9.9918900581        5.1413764584       15.6012306126
  H         3.1999472013        4.5404904834       28.4696969345
  H         3.2750767201        6.3342456421       28.2272944726
  C         2.1176568648        5.4778616250       29.9935505517
  H         5.1066393173       -1.7271933338       32.5724415638
  C         4.6743845858       -0.1024970411       33.8559834993
  H         5.0438956537        0.5767949795       19.6685957589
  H         5.6536934212        0.0557018289       18.1033160615
  C         4.2405521536        1.6893377359       17.9450264293
  H        12.5598742755        0.6261714371       21.8086307171
  H        12.9314470382        0.6897012189       20.0489290795
  C        13.8078765164        2.2087535609       21.3486348111
  N         9.4036655983        8.2377347249       18.0059502062
  C        10.1125061730        7.9916231061       15.7865666948
  C        10.3631254018        5.9010365032       14.5444275200
  H        10.1787739365        4.0860253485       15.6539132336
  H         1.5386620627        4.5213701635       30.1388620979
  H         2.7944627061        5.4438812893       30.8820393298
  H         1.2645293716        6.1476501546       30.2817110425
  S         4.3798036097        1.4940548296       34.2387377591
  C         4.7229058863       -1.1060848991       35.0237727582
  H         4.0897966996        2.5438841681       18.5448771247
  H         4.6133498411        2.0716689482       17.0043866370
  C         2.8925798809        0.9722653718       17.7911025503
  H        13.3458347034        3.1554795705       21.6631172534
  H        14.4619571019        2.3564282465       20.5047052322
  C        14.6173677194        1.6745100621       22.5817052313
  S         9.6255875082        9.7546269516       17.4577951958
  N        10.2137615956        9.3701990243       15.9866547902
  C        10.4278800326        7.4081863147       14.6034540352
  H        10.7362161937        5.3827065279       13.6772630781
  C         4.3024526407        0.9350083840       35.8794535189
  N         4.4543304140       -0.4399961564       36.1757129648
  O         5.0069705665       -2.2976350955       34.7518947619
  H         2.1887281578        1.5091661084       17.1564347421
  H         2.4300599821        0.8937345484       18.6949709724
  C         2.9964483893       -0.3317473574       16.9976923143
  H        13.9360799986        1.6447325325       23.3970690296
  H        14.8528907877        0.5875118907       22.4696709314
  C        15.8146847039        2.5792740864       22.8875833490
  C        10.7217251854        8.1796252851       13.4246241165
  S         3.7824022936        1.9375916457       37.2139325966
  C         4.4554675576       -1.0118848810       37.5620832437
  H         2.5286964468       -0.3266561675       16.0932492380
  H         3.9990522613       -0.3357635660       16.8761536552
  C         2.4668521893       -1.4663871535       17.8540840641
  H        15.5786932526        3.6472404983       23.2722957723
  H        16.3639148759        2.8210865459       21.9233102972
  C        16.9072826033        1.9274940893       23.6352990279
  H        10.6069691113        9.2590374693       13.4933369378
  C        11.1633682354        7.9464992728       12.1753922663
  H         3.6554893546       -0.6944592333       38.2084736674
  H         4.3561880551       -2.0644307925       37.2878720985
  C         5.8358860890       -0.7578689453       38.1898528755
  H         1.6074852511       -0.9923448567       18.4552832650
  H         3.1985617761       -1.7532987532       18.6016067361
  C         2.0775071415       -2.6625888944       17.0236549647
  H        17.4119364865        2.5077908831       24.3746546033
  H        16.4859391058        1.0344708260       24.0791867857
  C        17.8100594790        1.3125245231       22.6200041571
  S        11.6686999510        6.4772152794       11.5976163374
  C        11.3498279265        9.0578856357       11.1806454849
  H         5.6239069120       -0.2458364576       39.1911743428
  H         6.2254807972       -1.7628716535       38.4221718071
  H         6.5066315217       -0.1463108357       37.6756941198
  H         1.1470722987       -3.1117447643       17.2780055438
  H         2.7727979379       -3.4808018742       17.0258351831
  H         1.9264917179       -2.3082299991       16.0063855291
  H        18.5432766509        1.8789029758       21.9835965195
  H        17.2803992927        0.6698179586       21.9544168956
  H        18.3302017785        0.5914841254       23.1195315560
  C        12.0865124021        7.2258361608       10.0454601218
  N        11.9785925717        8.5609140677       10.0946922222
  O        10.9789636194       10.1449718553       11.4277802586
  S        13.0064895867        6.5179789097        8.7647981891
  C        12.2141267554        9.5128760731        8.9312734906
  H        12.3314920543       10.4746266580        9.4978293467
  H        13.1092746704        9.2220637219        8.5222425790
  C        11.0445110512        9.3700578902        8.0141661722
  H        10.3660298539       10.0409771782        8.5457982121
  H        11.2169927891        9.8487774812        7.0973210730
  H        10.4433692158        8.5520085126        7.8604089979
  H         4.7510117953        1.5505772142       12.5697870207
  C         3.9556982213        2.3401238411       12.5271182348
  H         4.4900253180        3.4025410558       12.5846768191
  C         3.1457495068        2.3969061958       11.1478583948
  C         3.0320341469        2.0539953108       13.6772125661
  C         4.0212843090        2.6673734493        9.8875252368
  H         2.3228791488        3.0574842444       11.1902679021
  H         2.7042991751        1.4732095063       10.8896648275
  H         2.1117578754        1.5042503451       13.3418215901
  H         2.5109223765        2.9735488635       14.0696706440
  H         3.5555889236        1.4708764208       14.4531220312
  C         4.7152313410        1.4900434690        9.3657408789
  H         3.4652830032        3.2997279897        9.2811948355
  H         4.8251437812        3.3957498953       10.1274576994
  C         5.3564722391        1.8227026263        8.0725031425
  H         4.0003215739        0.7056789718        9.1991937149
  H         5.3858620752        1.2045079287       10.1835583795
  C         6.5565888332        2.6577101035        8.0320766094
  H         4.6976490562        2.4841393400        7.4314533430
  H         5.5682870540        0.9536344956        7.4025101051
  C         7.8092784358        2.0544987698        8.7604920242
  H         6.9853332503        2.7478209116        7.0015731709
  H         6.3180003993        3.5357462555        8.5211811421
  C         9.0713483076        2.9045435729        8.9363866871
  H         8.1746179021        1.2407651877        8.1853056085
  H         7.5003074841        1.7497982378        9.7252587756
  C         8.7666534682        4.2453495117        9.6035757499
  C         9.5998995147        3.6340574418        7.6326965688
  C        10.2967441429        2.2253357134        9.7145459945
  C         8.9264525311        5.3865174802        8.8243620681
  C         8.1080094796        4.6276608655       10.7953704544
  C         9.5473577238        5.0173549503        7.6086002228
  C        10.0512070842        3.0204776952        6.4244729068
  H         9.8502901499        1.9019499393       10.7406465474
  H        10.5194679744        1.3346704366        9.0676527724
  C        11.5240981063        3.0956092636        9.9219791218
  S         8.4429585143        6.8653392900        9.4835986383
  C         7.8576079891        5.9043344976       10.8953854705
  H         7.9297149013        3.8765180964       11.6023009898
  C         9.9677901259        5.7108445636        6.4776277319
  H         9.9802028119        1.9367037878        6.3471838261
  C        10.4335526005        3.7442947188        5.2734613516
  H        11.1809810692        4.0173487123       10.2326083655
  H        11.9902030479        3.5500656183        8.9589442467
  C        12.5422592179        2.5319739029       10.8651314164
  C         7.4343018777        6.5978033874       12.1624865192
  C        10.3462890046        5.0527307666        5.2214769717
  H         9.7741898098        6.7364631983        6.4638820927
  C        10.9187963442        3.3941756464        4.0882195857
  H        13.3939182074        3.2649762028       10.9309403697
  H        13.1051691839        1.6561852587       10.3639910106
  C        12.1853658771        2.5563604819       12.3375208241
  C         7.5484593825        7.9691913214       12.5801508237
  C         6.9199448103        5.6585554170       13.2912514766
  C        10.6966477513        5.7160714279        3.9249252191
  C        10.9617673737        4.4029983517        3.1999067578
  S        11.2289445828        1.9114268223        3.2927131266
  H        11.7350376700        3.4366089672       12.6229736259
  H        11.2879800571        1.9233347966       12.5451820435
  C        13.1936552256        2.0048571149       13.3018000621
  N         7.8729496624        8.9753729684       11.7370830536
  C         7.2417297798        8.3568581601       13.8218158025
  C         6.7101778286        6.1593827152       14.5907568041
  H         6.6405886249        4.6699991230       12.9642931952
  C        11.9439456521        6.5418565900        4.0714285746
  C         9.4800451305        6.5760171790        3.3206378866
  C        11.2993042990        4.0514319949        1.9568362826
  C        11.4127545789        2.6494198954        1.8594486492
  H        13.9083005508        2.8994518633       13.4130916171
  H        13.7664971302        1.2330203285       12.7960382755
  C        12.5399002497        1.7175949027       14.6714025825
  S         7.6992232582       10.3919179927       12.4987247424
  N         7.3881819923        9.7632530590       13.9678363792
  C         6.7972115263        7.6137485533       14.8897910520
  H         6.2637456350        5.4358109231       15.3093723993
  H        11.7476046760        7.5189180022        4.7097892243
  H        12.2383104910        6.9927976306        3.1087160937
  C        13.2220442138        5.8549723510        4.7062151872
  H         9.1404273695        7.2390951883        4.0990603394
  H         9.7577414863        7.3560990475        2.5570685427
  C         8.4399555915        5.7615165018        2.6038821549
  H        11.3950107527        4.6823829358        1.1313621354
  C        11.7662198454        1.8024397994        0.5337990510
  H        11.9228813322        2.6217959228       14.9404249909
  H        11.9543745964        0.7496914626       14.7117539788
  C        13.5948307593        1.7587546178       15.8456485507
  C         6.7199695730        8.1645810486       16.2019644808
  H        13.0932988733        5.4820453342        5.7238302350
  H        13.4534984744        5.0059151673        3.9229298603
  C        14.3670441936        6.7747515323        4.6989817711
  H         8.1584681577        4.9619510806        3.3587932064
  H         8.9224548095        5.3602608520        1.6932121189
  C         7.2295181853        6.5976590590        2.2726599498
  C        11.8521290160        0.4415830708        0.4034940809
  C        11.9654621676        2.5534896001       -0.7491317635
  H        14.5080817452        2.2547618730       15.5175925220
  H        13.7966461660        0.7384530987       15.9186384607
  C        12.8852220669        2.3188787820       17.1622721016
  H         6.6749023760        9.2755017881       16.2594602432
  C         6.4442447146        7.6196539870       17.4652883950
  H        14.1961703406        7.6271417093        5.4390680028
  H        14.5444257805        7.2741965941        3.7477009179
  C        15.7355426012        6.1692811879        5.0670701937
  H         6.6806081878        6.4511428145        3.1790933582
  H         7.6857798234        7.6223125492        2.3430869767
  C         6.4191657335        6.0192432381        1.0711721620
  N        11.5158549974       -0.4201582840        1.4580236203
  C        12.1674716934       -0.1997764095       -0.7926970944
  C        12.2779534329        1.9206826839       -1.9681593040
  H        11.7348439555        3.4896798677       -0.8479037105
  H        11.8894115396        1.8720398198       17.0451135906
  H        12.7496610196        3.4634772834       17.0812171735
  H        13.5017828756        2.0189832009       17.9840932637
  S         6.1723796439        6.0098089705       17.9464582542
  C         6.3101192417        8.6361381690       18.5832736568
  H        15.9685081064        5.1928758566        4.6878100136
  H        16.5006527362        6.8839820088        4.5998828465
  C        15.8308908840        6.1259888363        6.5838053431
  H         6.2653727484        4.9555171884        1.3238377711
  H         6.9643605803        6.1392129694        0.1347160062
  C         5.0368129200        6.6593916546        0.8909070726
  S        11.7110343906       -1.9571826478        0.9168967993
  N        12.0813512016       -1.6007662294       -0.6454290806
  C        12.4679246288        0.4416373624       -2.0240866723
  H        12.4160949623        2.4845504677       -2.8428655095
  C         5.8581318578        6.6584139004       19.5914201896
  N         6.0476246950        7.9730623061       19.7112624924
  O         6.5095303664        9.8776135678       18.4461098065
  H        15.8857076278        7.0446121428        7.0833678739
  H        15.0593692691        5.5538550696        7.1126561557
  C        17.0831870508        5.3965609426        7.0235287878
  H         4.5443388276        6.3589151256       -0.1162675942
  H         4.5300448561        6.1355382526        1.7283164522
  C         5.1319108059        8.1115342210        1.1786062042
  C        12.8806127768       -0.4284630686       -3.0596784084
  S         5.6955664195        5.7914044143       21.1559655843
  C         5.9559758654        8.6838004255       21.0142187466
  H        16.6124253234        5.0280376211        8.0002307743
  H        17.2993650698        4.4935035259        6.4651136031
  C        18.4351672272        6.0728101927        7.4072189524
  H         5.9195226804        8.5093002337        0.5051514740
  H         5.6072151736        8.2193891804        2.2505906164
  C         3.8115510745        8.8307954529        0.8790603927
  H        12.6602201225       -1.5396031275       -2.9443548065
  C        13.3666548573        0.0345883368       -4.2297225569
  H         5.2448372371        8.1717030322       21.6426376679
  H         5.5707899525        9.7303103635       20.9494942337
  C         7.3115538341        8.7169603266       21.6338227602
  H        19.0855298790        5.4466501077        7.9965006190
  H        18.2484526060        7.0559771648        7.6783168402
  C        19.1056427493        6.2560040844        6.0419380696
  H         3.4728455104        8.7068082222       -0.2022358776
  H         3.1200266214        8.4102272025        1.5915502344
  C         3.7276583572       10.2955408058        1.2087165311
  S        14.0081826489        1.6500685920       -4.6529353779
  C        13.6192714859       -1.0521740640       -5.1992290453
  H         7.6190579888        9.4741943154       22.3550931353
  H         8.0794719502        8.6858751868       20.7712346030
  H         7.3666543360        7.8754794138       22.1884509922
  H        18.7563505394        7.2155079623        5.8368687086
  H        20.2310688565        6.3409113777        6.0077091596
  H        18.8585559372        5.6460629324        5.2070297390
  H         3.0526564450       10.5141109148        2.0182020605
  H         4.6626534337       10.6745959618        1.5490748215
  H         3.3832299412       10.9278503797        0.4230425095
  C        14.2883678421        0.8665290554       -6.2590256226
  N        14.0707983793       -0.4849479848       -6.2731690455
  O        13.2719449362       -2.2518635155       -4.9754919871
  S        15.0903658805        1.7169012540       -7.5768251882
  C        14.2987435426       -1.2729098298       -7.5337043124
  H        14.7631386484       -2.1495601161       -7.2366179713
  H        14.9652294928       -0.7281628239       -8.2234841583
  C        12.8583886641       -1.8013814725       -7.9085548648
  H        12.7685195279       -2.6878449841       -7.4424862401
  H        12.7890528401       -1.8976524885       -8.9518339139
  H        12.0981248248       -1.1880222358       -7.7767565245
