352
 i =   108800, time =    54400.000, E =        98.6179248894
  H        10.3843923122        4.4481021147       32.0704760406
  C        10.6978383261        5.4191001907       32.4488893125
  H         9.8137487289        6.0393656711       32.6753293415
  C        11.5865387089        6.0416017035       31.3669133879
  C        11.5663319671        5.1573142025       33.6769524651
  C        10.9031324628        6.3440775750       30.0224219174
  H        12.0170540296        6.9731665729       31.8128757602
  H        12.3836867788        5.3478379730       31.1673523143
  H        12.5834157459        4.9458479899       33.4003481860
  H        11.5879190149        6.0140352819       34.4029433097
  H        11.0853403911        4.3247040571       34.2345294842
  C        10.5091517449        5.0862246954       29.1581752714
  H        11.6144764578        7.0548476610       29.5329199805
  H        10.0288099137        6.9207190694       30.2315345784
  C        10.9968987143        5.1612339158       27.7042131930
  H        10.9639302529        4.2516967611       29.5577484052
  H         9.3671530556        4.8608311658       29.0624938694
  C         9.8409569270        4.7609519701       26.6889546411
  H        11.8905239409        4.5052610542       27.6812016049
  H        11.2394962928        6.1362889249       27.4005114666
  C         8.6656371453        5.7612962809       26.5501184633
  H        10.1623389947        4.5117527403       25.7207062786
  H         9.3518774536        3.8239832723       27.0457117962
  C         7.4236102031        5.3297150208       25.6314723503
  H         8.4246106840        6.0810614777       27.6235072876
  H         9.0878712795        6.6828456854       26.0776065360
  C         6.9811995092        3.9542822404       26.2243026119
  C         7.8591903503        4.6834495665       24.3673202961
  C         6.3576519496        6.4661237531       25.6827185362
  C         7.3077079403        2.8724426174       25.4271550903
  C         6.4264255436        3.5092615679       27.4553101513
  C         7.8242238985        3.3311924950       24.1944333678
  C         8.3718897904        5.3209593109       23.2294927271
  H         6.8449464079        7.3699643864       25.3411909830
  H         6.1564211491        6.6940774174       26.7528540312
  C         5.0824114629        6.2225310445       24.9466042307
  S         6.7767537240        1.3553497222       26.1244054561
  C         6.2321346270        2.1861855305       27.5137330132
  H         6.2599122875        4.3152329686       28.1233576666
  C         8.2193286997        2.7748416655       23.0489303535
  H         8.4412858473        6.3737156690       23.2991702756
  C         8.7003950420        4.7588003431       22.0499035968
  H         5.2383115843        6.5546561784       23.9252258127
  H         4.8660720679        5.1137845144       24.8722589253
  C         3.8466970093        7.0026176995       25.3651890075
  C         5.7624936978        1.5219956645       28.7465744106
  C         8.7420311924        3.4001102906       21.9108478232
  H         8.2801764045        1.6868674688       23.0147132727
  C         9.1865325311        5.2307616386       20.8102351739
  H         3.1276533465        6.8227654441       24.5464119283
  H         3.9344281289        7.9956590920       25.2144260862
  C         3.2753725167        6.8697671827       26.7656238668
  C         5.8035233042        0.1022311331       28.9870231325
  C         5.4232124890        2.2857729785       29.9230629686
  C         9.1342262387        2.8150024173       20.6647337819
  C         9.4697043065        4.1421012979       19.9765138151
  S         9.4448277881        6.7510732024       20.0917883638
  H         2.4353921485        7.6048734627       26.7418844985
  H         4.0546973300        6.9417832042       27.5833281829
  C         2.6703893422        5.4326379508       27.0472022137
  N         6.1881072053       -0.7996797395       28.0249477284
  C         5.4574774607       -0.5808041377       30.1832132001
  C         5.1467117485        1.5987758752       31.1387902463
  H         5.3808531393        3.2964746152       29.9110173728
  C         8.0583355133        1.9416349953       19.9412156581
  C        10.3980112580        1.8608947231       20.8906752961
  C         9.8563490512        4.5199218433       18.6872701035
  C         9.9027792244        5.8941949098       18.6059477626
  H         2.1496468963        5.1518187271       26.1230933322
  H         3.5360917528        4.7290052061       27.2768090669
  C         1.6192626733        5.3133060181       28.1979105662
  S         6.0955795505       -2.3150404060       28.6656332663
  N         5.7380170104       -1.9242165859       30.2177299637
  C         5.1431212157        0.1887799765       31.3556529622
  H         4.8664987658        2.1580796418       32.0032839379
  H         7.6862121739        1.2119014900       20.5979463155
  H         8.6222485700        1.4406837515       19.0910957689
  C         6.9124410735        2.7938618941       19.4435237101
  H        10.6705437894        1.4231258261       19.9033071899
  H        10.1714114496        1.0179366080       21.5549910037
  C        11.5651393502        2.5992488900       21.5005433072
  H         9.9685640295        3.7548131981       17.9099458235
  C        10.1421747991        6.6551988627       17.3342093038
  H         1.3691141842        4.2411185090       28.2384337149
  H         0.6152497291        5.7033636105       27.9153493328
  C         1.9038771184        5.7847568670       29.6790763648
  C         4.8220420474       -0.4789961953       32.5589811121
  H         7.0801600772        3.4377428556       18.6373711470
  H         6.4942185393        3.3956494327       20.2721588641
  C         5.8396514604        1.7926756993       19.0068545602
  H        11.2555849165        3.2466231360       22.2814021324
  H        11.9144461474        3.2960922164       20.8015494942
  C        12.6816595533        1.6179248375       21.8748200345
  C        10.0855097623        8.0517263903       17.0695271600
  C        10.2333084902        5.8791145157       16.0945119940
  H         1.8865366222        6.8602386319       29.7006029736
  H         1.0704870182        5.2980336250       30.2534805628
  C         3.1940410667        5.1811759650       30.2991336410
  H         5.1422314814       -1.5280722660       32.5272594050
  C         4.5226856846       -0.0218845691       33.8193781482
  H         5.6334314608        1.0847312235       19.7827763066
  H         6.3478184092        1.1670576039       18.2392421363
  C         4.6506522135        2.5349215064       18.3900939610
  H        12.3027883817        0.7854724833       22.3841946409
  H        13.2797240534        1.3088063151       21.0100182679
  C        13.6932593935        2.3716240184       22.7398830957
  N         9.9125183055        9.0070729761       18.0757278732
  C        10.2831644603        8.6474722128       15.7943263961
  C        10.4465172069        6.3889219218       14.8386285785
  H        10.1768459317        4.8068012522       16.0454807417
  H         3.6957532496        5.9035965782       30.9035546702
  H         2.9155209280        4.2857934040       30.8109364354
  H         4.0205486490        4.9261699772       29.6766420799
  S         4.2274103139        1.5609430694       34.3907102409
  C         4.4884281924       -1.1420598579       34.8293735976
  H         4.4327002436        3.4172367354       19.0033077809
  H         4.9341205794        2.9831016583       17.4194992918
  C         3.4246931864        1.7338717592       18.1790441832
  H        13.7240184362        2.0494108273       23.7495688819
  H        13.5093768041        3.4852754503       22.7686799009
  C        15.0693295132        2.2068127051       22.1561017067
  S         9.8695345837       10.4660991934       17.4196665166
  N        10.3344562034       10.0733997129       15.9101668642
  C        10.4939921278        7.8826681380       14.6111200112
  H        10.6363116716        5.6861808049       13.9796087119
  C         4.1895489471        0.7831311163       35.9777503800
  N         4.1253100091       -0.5414427047       35.9719754573
  O         4.3281762373       -2.3311568201       34.5787784018
  H         2.7500719687        2.3266365766       17.5720586529
  H         3.0421362928        1.4992504320       19.2085787578
  C         3.5615831236        0.3397275940       17.6348836837
  H        15.4085619523        1.1803779162       22.5044530117
  H        15.1792676047        2.1762640561       21.0790517691
  C        15.9740066687        3.2391654369       22.7829160221
  C        10.8801932456        8.5647407307       13.3753621464
  S         3.8879458790        1.6224558031       37.4532882819
  C         3.9132181592       -1.3479428903       37.1721611982
  H         4.2881071467        0.2750456694       16.8587612748
  H         3.8491589328       -0.2601483851       18.4412630373
  C         2.3308675114       -0.3896043267       17.1180093581
  H        15.7548305394        3.1912946384       23.8381004758
  H        15.6670411459        4.2143475307       22.4747806416
  C        17.4453321844        2.9013499672       22.4438826242
  H        10.6127912384        9.5871951758       13.4107673972
  C        11.3664659015        8.1481943336       12.1491256058
  H         3.1683917510       -0.8228395247       37.7730985473
  H         3.4116883407       -2.2674195346       36.9288182281
  C         5.2264424138       -1.5586307491       37.9422169146
  H         1.9299885749        0.2140506340       16.3288398931
  H         1.4723943568       -0.2743963400       17.7432624483
  C         2.5170854093       -1.8159524637       16.6477220643
  H        17.6334655712        2.4080222271       21.5045917072
  H        18.0425005866        3.8196524053       22.3561593543
  C        18.0605857083        2.1381270146       23.6293914569
  S        11.8724287551        6.5307440177       11.7661608536
  C        11.5435922731        9.1701062705       11.1753632252
  H         5.1281753707       -2.4054479017       38.5833116076
  H         5.9975301296       -1.7583441798       37.1845227820
  H         5.4898540081       -0.7239053817       38.5587837271
  H         2.5564498769       -2.6279698824       17.3786032476
  H         3.4909467225       -1.7772249236       16.1559607083
  H         1.7503329713       -1.9923354819       15.8582627214
  H        19.1285342497        2.2033270120       23.4196132955
  H        17.7142077732        1.1305471964       23.6939338883
  H        17.7431410642        2.6288673094       24.5501139021
  C        12.2649927092        7.2500588697       10.1714019788
  N        12.1454649214        8.6411862774       10.1146497745
  O        11.2172057994       10.3393811811       11.3122284537
  S        12.8135165389        6.3326326436        8.7578651205
  C        12.2628398406        9.3825651702        8.8909248000
  H        12.4335597414       10.5161886227        9.1159115656
  H        13.1452370086        8.9993338006        8.3434984457
  C        10.9719740288        9.2507408654        8.1259698064
  H        10.3442306786        8.6450245204        8.7192363951
  H        10.4822008230       10.2074566663        7.9060925730
  H        11.1884503495        8.6805939368        7.2924919314
  H         2.5611274411        2.8744518485       12.8572829503
  C         3.5127112620        2.3184831683       12.8955077080
  H         3.2228515909        1.3151451645       12.5635554579
  C         4.5072630549        2.9432453165       11.9210998204
  C         3.7553049287        2.3430544736       14.3734554564
  C         3.9746159954        2.8977888662       10.4868019642
  H         5.4804511785        2.4912007946       12.0085429376
  H         4.5533710057        4.0033575615       12.2563135053
  H         4.5112858180        3.0743067863       14.6763701402
  H         4.0999170233        1.3522911352       14.5790917512
  H         2.7876207245        2.5047801163       14.8843978232
  C         4.6608515618        1.6925515795        9.7436093032
  H         2.8806684546        2.7730541332       10.6516418561
  H         4.2421239304        3.8212035796        9.9265640999
  C         5.2645718614        2.0159656379        8.3241818821
  H         3.8228568643        1.0414920548        9.6181619413
  H         5.3901081494        1.1538736367       10.3774101420
  C         6.5814258521        2.8271496960        8.3790507674
  H         4.5874413821        2.5016766485        7.6744765915
  H         5.5291424082        1.0831195866        7.8054232426
  C         7.7627918845        2.0561122554        8.9786512499
  H         6.8508964372        3.1380656845        7.2906549822
  H         6.3537256739        3.7719730791        8.8867183187
  C         9.1659860991        2.7978342667        9.0890904039
  H         8.0245657107        1.2624957180        8.3222126054
  H         7.5737738659        1.6876850441        9.9829260512
  C         8.7459416300        4.1468624518        9.7348847109
  C         9.6566976059        3.5450594170        7.8818657251
  C        10.3301439814        2.0679986963        9.8809491293
  C         9.0468832233        5.2550005418        9.0252164944
  C         8.1084419648        4.5551302685       10.9610517891
  C         9.6795966001        4.9252978223        7.8867040603
  C        10.0080454452        2.9642220090        6.6844626479
  H         9.8252767080        1.4600909302       10.7527200710
  H        10.8463573728        1.3148140542        9.3039497766
  C        11.3557042471        3.0005767324       10.5865584291
  S         8.5258244366        6.7335678342        9.6610221895
  C         8.0450334552        5.9301020815       11.1116638314
  H         7.7068402996        3.8225589016       11.5855874867
  C        10.1119492196        5.5378416763        6.7538472200
  H         9.8142305422        1.8682420717        6.4443945932
  C        10.4907677715        3.5831258018        5.5989894856
  H        10.8709615147        3.8520669127       11.1905750593
  H        11.8053094094        3.5935448185        9.7833586863
  C        12.3510397938        2.2997244450       11.4835251298
  C         7.5948754245        6.5549497152       12.3679602509
  C        10.4740666320        4.9075133492        5.5374810987
  H        10.0633106411        6.5552130749        6.8851203933
  C        10.8999705642        3.2389616605        4.3166853383
  H        13.3108878964        2.7859948190       11.4355818995
  H        12.5647283409        1.3154213463       11.1727561758
  C        11.7715146784        2.1460406696       12.8810896370
  C         7.6092739587        7.9147322125       12.6273838779
  C         7.2082769521        5.7681626441       13.5534718729
  C        10.8734917020        5.6521564569        4.2570365009
  C        11.0956976905        4.3171077161        3.5029392585
  S        10.9485484084        1.6569224914        3.5618397431
  H        11.0205346684        2.9394727882       13.0771796833
  H        11.2324043352        1.2545746608       12.8932263949
  C        12.8904247606        2.2620171989       13.9577488152
  N         8.0419358045        8.8675259197       11.6744566854
  C         7.4234592994        8.4795720265       13.8701932164
  C         6.8397958712        6.2829347568       14.7812959593
  H         6.9842682075        4.7306148006       13.4608189152
  C        12.1855813015        6.5213086004        4.5602586531
  C         9.6482836054        6.4384208921        3.8723180764
  C        11.4366835390        3.8776127686        2.1952022326
  C        11.3682431180        2.5113639950        2.0727657591
  H        13.5404550363        3.1338281512       13.8134835225
  H        13.6842783542        1.4331995048       13.9926194257
  C        12.2138516131        2.3176294960       15.3084335473
  S         8.0663018891       10.3616388597       12.4125889904
  N         7.6894557856        9.8371884772       13.9499308910
  C         7.1070199220        7.7567063419       15.0807554426
  H         6.6834456130        5.6202020458       15.6013800640
  H        11.9387762481        7.1411242055        5.4116407669
  H        12.3751777973        7.0929731894        3.6827531328
  C        13.4065021750        5.7808210056        5.0077863924
  H         9.2423530123        7.0181332609        4.7196367704
  H        10.1040753171        7.2271902938        3.2311871921
  C         8.4564270810        5.6261069651        3.1799295381
  H        11.6912339366        4.6199582850        1.4140421012
  C        11.6278064738        1.8041540660        0.7634789186
  H        11.4487495132        3.1202777548       15.2045911802
  H        11.6013151289        1.4697429669       15.5246033281
  C        13.2819003980        2.3982821720       16.3750746874
  C         6.9073444020        8.4802165041       16.3219360990
  H        13.1181907821        5.0843602312        5.8001512833
  H        13.6380988739        5.0928529029        4.1531186837
  C        14.6290523307        6.7234531829        5.3431873734
  H         7.9986717297        4.9225296665        3.8563786562
  H         8.7677904577        5.0484871214        2.3140318440
  C         7.3889828896        6.5606483757        2.6907243052
  C        11.6870485913        0.3961858116        0.6541967133
  C        11.9482081779        2.5628186632       -0.4226647412
  H        14.1375670816        2.8729549340       15.9407163914
  H        13.5491265897        1.4056791666       16.7783107148
  C        12.8915235000        3.0561955794       17.6658821014
  H         7.0461316865        9.5698879848       16.2646368778
  C         6.5419857744        8.0939520365       17.5936791987
  H        14.3419481904        7.2643363281        6.2283834099
  H        14.7384507104        7.4333574018        4.5601261768
  C        15.9273428267        5.9615209227        5.5363860388
  H         7.1084954670        7.3391139801        3.4351955194
  H         7.9073307731        6.9882011190        1.8536633801
  C         6.1118107839        5.8782272005        2.1523510055
  N        11.4891458648       -0.4798424675        1.7003946851
  C        11.9670685236       -0.2264666541       -0.5562316327
  C        12.2481831734        1.9390364400       -1.5863574461
  H        12.0479437351        3.6378785373       -0.3976040177
  H        13.8572519780        3.4240188506       18.0721098137
  H        12.4193793925        2.2730054156       18.2254286739
  H        12.2790628527        3.9360681267       17.5520410452
  S         6.3746194149        6.4361549139       18.0179669581
  C         6.5076469095        9.0907017243       18.7429301159
  H        15.7514269802        4.8922401925        5.2496672811
  H        16.7172776663        6.3476982686        4.8129504185
  C        16.5105318867        6.1156282572        6.9288657797
  H         5.8774451842        5.1375163597        2.9405288369
  H         6.2032489004        5.2215229098        1.2702285769
  C         4.8547070472        6.8165397057        1.9571708456
  S        11.4869348870       -1.9533486966        1.0561832083
  N        12.1276643635       -1.5751177145       -0.4201228083
  C        12.2760972837        0.4390851803       -1.7518403371
  H        12.5809427395        2.5823540736       -2.3411682355
  C         6.2224860093        7.0681307992       19.6523274681
  N         6.3219279721        8.4174255819       19.8330943895
  O         6.7807872614       10.3040560959       18.6329281056
  H        16.6674752223        7.1248438974        7.0328763504
  H        15.7656497865        5.8698285992        7.6567244196
  C        17.7704273047        5.3752006533        7.2833851448
  H         3.9143648325        6.3100919982        1.9326532414
  H         4.8148008744        7.5151958931        2.8437699882
  C         4.8392151840        7.4852901638        0.5972317591
  C        12.6035451114       -0.3223620454       -2.9241070103
  S         5.9737579830        6.0722274758       21.1067568618
  C         6.3215602706        9.0549411566       21.1433773128
  H        17.5721114434        4.9966920269        8.2503272174
  H        18.0226144275        4.7178461601        6.5020159116
  C        19.0662558255        6.1560366650        7.4092841923
  H         4.6888422484        6.8031568979       -0.2359320053
  H         5.8567259114        7.8299804359        0.3698296547
  C         3.7424894788        8.5879133714        0.4731416719
  H        12.3524456317       -1.2953775944       -2.7924860285
  C        13.2367754564       -0.0130746391       -4.1003606216
  H         5.5774283467        8.6650990052       21.8249673498
  H         5.7923941504       10.0080181807       21.0769112203
  C         7.7041318211        9.2650094228       21.8436924888
  H        19.5791395192        5.7188394970        8.2905667525
  H        18.8701420090        7.0872477670        7.9205628017
  C        19.9095912371        6.5121324527        6.1632831526
  H         3.6122857327        8.8308835333       -0.5651779398
  H         2.7943162573        8.2036895179        0.9208542709
  C         3.9054445381        9.7623814621        1.3931844637
  S        13.7664979510        1.5655407331       -4.5488420147
  C        13.3888957594       -1.0551936539       -5.1530565081
  H         7.8960051018        8.5975307794       22.6564433791
  H         7.6307841010       10.2262715818       22.3141507525
  H         8.4725565202        9.2144024718       21.0465098267
  H        19.3475297559        6.9890400039        5.4071610522
  H        20.7085139448        7.1757099053        6.4907777380
  H        20.4431395004        5.6724970923        5.7697839258
  H         4.1469095480       10.5755199778        0.7600454503
  H         2.9361146726        9.9564781050        1.9310904576
  H         4.6502765295        9.6501245334        2.1961962898
  C        14.3113398514        0.8534591883       -6.0572190743
  N        13.9600668185       -0.4751132909       -6.2150667547
  O        12.9880595464       -2.2236505023       -5.0347812360
  S        14.8756823024        1.6946411469       -7.4794516418
  C        14.0466497827       -1.2452803895       -7.3972231877
  H        14.2030017230       -2.3481254773       -7.0163978391
  H        14.9797573918       -1.0019403308       -7.8336177270
  C        12.7693550952       -1.1386876281       -8.2603126266
  H        11.9472722567       -1.8145102622       -8.0506903367
  H        12.7760276621       -0.9570715335       -9.3702716592
  H        12.3032638231       -0.1917729383       -7.9962448645
