352
 i =    59200, time =    29600.000, E =        98.3366516454
  H        10.3442213261        4.1606993364       32.0864549238
  C        10.1025026185        5.1479756346       32.4218863702
  H         9.0291088352        5.1658259365       32.5668144533
  C        10.6257193839        6.2264235477       31.4017140679
  C        10.8178880364        5.1301660527       33.7362776530
  C        11.1895594369        5.6558976578       30.1309942069
  H         9.8165773209        6.8195475996       31.1880190921
  H        11.3853466984        6.8222959629       31.9713020696
  H        10.1225470670        4.6032292895       34.3794705035
  H        11.8366451067        4.7754818465       33.6006802462
  H        10.9220603109        6.1553616362       34.1573803768
  C        10.1609858032        5.0627506761       29.1970690754
  H        12.0540251498        5.0174632130       30.3809159402
  H        11.6920242072        6.4866748779       29.5852782600
  C        10.3438878206        5.3916245865       27.6916106734
  H        10.0906161494        3.9532221780       29.3450348194
  H         9.1954406912        5.4665965549       29.4021748262
  C         9.3091921276        4.6074774991       26.8957497297
  H        11.3295462261        5.0702243503       27.5368628606
  H        10.3304150304        6.4597673093       27.5430147118
  C         8.1462116333        5.5382684325       26.5302845588
  H         9.8768956689        4.2559748851       26.0692141376
  H         9.0133548308        3.7837072981       27.5146160509
  C         7.0274379802        4.9071451349       25.6740439598
  H         7.6512932263        5.6577016492       27.4690575008
  H         8.5209441763        6.4632999200       26.0944273547
  C         6.7002088041        3.4584792726       26.3735020781
  C         7.4596897504        4.1961897144       24.4367442484
  C         5.7352574382        5.7701431332       25.6343283392
  C         6.9901797584        2.4330425276       25.5432878466
  C         6.1610309145        3.0459089336       27.5633118227
  C         7.5394063414        2.8628397744       24.3389819198
  C         7.9885176117        4.7721337562       23.2107405162
  H         5.7908352276        6.8438980031       25.2821636150
  H         5.4428070360        5.8613029339       26.6296342424
  C         4.6193681471        5.0528687891       24.7716720505
  S         6.6480471036        0.8542159965       26.2012352831
  C         6.0129992373        1.6959215348       27.5859084792
  H         5.8806970238        3.8270755053       28.2847497349
  C         7.8840396257        2.2508812421       23.2020747336
  H         7.9254678952        5.8605204341       23.0421278453
  C         8.4351180649        4.1704853527       22.0711199099
  H         4.7641455279        4.8389022522       23.7211806986
  H         4.4367833396        4.0479922000       25.1972108093
  C         3.2138306282        5.7815977933       24.7769621780
  C         5.4840833803        0.9639600429       28.8158986783
  C         8.3662741172        2.8244219022       22.0121527269
  H         7.8425583928        1.1457772797       23.2236183098
  C         8.8209305297        4.5848527324       20.7946300200
  H         2.5595530532        5.1604930293       24.1335824269
  H         3.3006463001        6.7930297397       24.3130413326
  C         2.5697376916        5.8848341942       26.2411441921
  C         5.5317564206       -0.4510314460       29.0322977229
  C         4.9916835271        1.8233900805       29.9568062465
  C         8.7550033605        2.1395617618       20.7095928335
  C         9.0441439056        3.4614269098       20.0013899374
  S         8.9726409820        6.0426023919       20.0592768099
  H         2.0838661584        6.8080107789       26.1762627677
  H         3.3348738889        6.2220496698       26.8830753539
  C         1.5901098099        4.7943257537       26.5623645278
  N         5.9553934163       -1.4369120500       28.1586099448
  C         5.2182707190       -0.9245655131       30.2697883919
  C         4.7731656025        1.2698995636       31.1814444204
  H         4.9077630846        2.9045062935       29.8814127792
  C         7.5857649997        1.3851214078       20.0155229820
  C        10.0455209253        1.3474661031       20.8165705027
  C         9.3235741979        3.8399436627       18.6325742676
  C         9.3600151791        5.2227014628       18.5752930294
  H         0.9751937249        4.7496198077       25.6391763236
  H         2.0758140618        3.8214299956       26.4758412713
  C         0.6952251945        4.8911190842       27.8341167321
  S         5.8287648173       -2.9137918167       28.8843233654
  N         5.3578325545       -2.3222942594       30.3620033208
  C         4.8643174333       -0.1924387128       31.4132727556
  H         4.4840754677        1.9189630097       31.9788839418
  H         7.2687771579        0.4592627653       20.4896689141
  H         7.9572737987        1.0571491046       19.0394997141
  C         6.2986847184        2.2377185069       19.8146674271
  H        10.1278325359        0.7800014185       19.8909365255
  H         9.8645477527        0.5211352936       21.5019859543
  C        11.2615018481        2.1450632606       21.2643648508
  H         9.6922478426        3.0644986866       17.9282794810
  C         9.6546035040        6.0535398752       17.3682370186
  H         0.1581958028        3.9591260184       28.1420625782
  H         0.0157304601        5.6048452185       27.7727042964
  C         1.6730792763        5.2923162569       28.9831921298
  C         4.6802335718       -0.8613211674       32.6897338659
  H         6.5173378502        3.1019257528       19.2092197079
  H         5.8948141398        2.5488896869       20.7627977170
  C         5.2190422627        1.3822984955       19.0861073787
  H        11.0579354619        2.6144756351       22.2499495698
  H        11.4862175181        3.0503882668       20.7769611969
  C        12.5326211626        1.2987114016       21.4468940057
  C         9.6989209371        7.4871472127       17.2588966525
  C         9.9631839358        5.2589390333       16.2204882933
  H         2.6163591115        4.7158481511       29.0258989508
  H         2.0820566252        6.2581024316       28.8990706399
  C         0.9519096826        5.3572769427       30.2957433197
  H         4.8218072657       -1.9533661567       32.5884059746
  C         4.3596758392       -0.4147167840       33.9605437411
  H         4.7913823032        0.5550592274       19.7250944635
  H         5.6815677561        0.9129362095       18.2126932655
  C         4.0484944899        2.2507510388       18.5881483641
  H        12.3968663574        0.5989540332       22.1960289750
  H        12.8381858855        0.8601340386       20.5232809191
  C        13.7087242773        2.1858293849       21.8146007375
  N         9.3936287779        8.3824358921       18.2452018648
  C        10.0483386266        8.1032575117       16.0748091999
  C        10.3233123633        5.8832956521       15.0149118981
  H         9.8526805083        4.2015856491       16.2162112489
  H         1.5013257784        5.6701079802       31.0475806112
  H         0.1162473966        6.0064358548       30.3024795230
  H         0.5910440099        4.4264106415       30.5588574875
  S         4.1295411016        1.1864469426       34.5804941978
  C         4.2943135440       -1.5019779570       34.9738363942
  H         3.9244302208        3.1039319342       19.3012520240
  H         4.2337001261        2.7105856491       17.5779856236
  C         2.6641276187        1.5870388914       18.5043488422
  H        13.3526391372        2.9412603800       22.5063781622
  H        13.9155966266        2.5647147326       20.8634566614
  C        14.9162501665        1.6162318539       22.5174221150
  S         9.5936240338        9.9323351191       17.6977365782
  N        10.0556974031        9.5557827850       16.2127379255
  C        10.3914076064        7.3537209685       14.9423998071
  H        10.4877551492        5.2764335432       14.1696316614
  C         3.9667512249        0.4354453185       36.2008363669
  N         3.9305535019       -0.9387305720       36.1561523398
  O         4.4044341135       -2.6863202757       34.7768677223
  H         1.8676263801        2.2747297538       18.2731599289
  H         2.4240281919        1.1818390640       19.4443967015
  C         2.5999510596        0.5846284443       17.3635178707
  H        14.6138758312        1.0689111128       23.4081471182
  H        15.4542116414        0.8721792271       21.9516392637
  C        15.8691954718        2.7542164434       22.8947853815
  C        10.6533502575        8.0773653460       13.7874635074
  S         3.3854523954        1.1615623273       37.6485389304
  C         3.9922061257       -1.7782554360       37.3733437625
  H         1.7943230393        0.7372991419       16.7723321548
  H         3.4727952950        0.8255226143       16.7893000024
  C         2.6653378757       -0.8312917866       17.8974268728
  H        15.9247794171        2.8426721371       24.0020028224
  H        15.5152850820        3.7079243063       22.5563046450
  C        17.3196148652        2.6003479334       22.3138373405
  H        10.3624115869        9.0848827300       13.8377970451
  C        11.1403936639        7.7525290790       12.5579760921
  H         3.3384617482       -1.3643936843       38.2012900548
  H         3.5955846162       -2.7959612233       37.1501888756
  C         5.3762359342       -1.8381705366       37.8541434015
  H         3.2896244988       -0.8648530973       18.7975741283
  H         3.2904269237       -1.3945362275       17.2682912162
  C         1.2273813024       -1.4659485398       18.0310388649
  H        17.1933550711        1.9872087384       21.4695524045
  H        17.8167844789        3.4418380987       21.8413477292
  C        18.2344608838        1.8503519831       23.2744465085
  S        11.5191175903        6.2413657697       11.9987789980
  C        11.3743512440        8.8514076809       11.5381312402
  H         5.5549415775       -2.6226714583       38.4485082125
  H         6.1645219149       -1.9708507841       37.0599235639
  H         5.5801097362       -1.0164905925       38.5787988310
  H         1.3737940642       -2.4595674729       18.2625958263
  H         0.7147884159       -1.3913362250       17.1048169385
  H         0.6204609655       -1.0112041619       18.8188775916
  H        19.2536176640        1.6999471043       22.7611513204
  H        17.7049779795        0.9668459364       23.6568637212
  H        18.5222409061        2.4919084575       24.0809622340
  C        11.9320825014        6.9458843072       10.4596491787
  N        11.8892522165        8.2791416095       10.3954749551
  O        10.9768112357       10.0559531734       11.6886753661
  S        12.5960598273        6.0539292130        9.0699233666
  C        12.2832021679        9.1072781327        9.2125490078
  H        12.5734388697       10.0647127819        9.5046514547
  H        13.2187356733        8.7521917577        8.8088568919
  C        11.3153956315        9.0400270379        8.0746434706
  H        11.7570758190        8.8372513777        7.1497049985
  H        10.5261659878        8.4045805014        8.3617925234
  H        10.8479420566       10.0107957788        7.9786356294
  H         3.7720294992        0.4955085224       12.2535896337
  C         3.4204472826        1.4820289166       12.2194970456
  H         4.2435393712        2.1635978531       12.0332201538
  C         2.4538626313        1.6597074043       11.0099651664
  C         2.6404089627        1.8881881996       13.4905769695
  C         3.3466077462        2.1419133620        9.8356358297
  H         1.8507997937        2.5372765160       11.2211988785
  H         1.8843247757        0.7542312702       10.8125668394
  H         1.7437138243        1.2766988696       13.7427559937
  H         2.3897392143        2.8847348499       13.5969185688
  H         3.3011568965        1.6878757545       14.3007993924
  C         4.3860967098        1.0967054973        9.3913551094
  H         2.7347070264        2.3675831769        8.9922751631
  H         3.9187965543        3.0248372823       10.1993573976
  C         5.4433802680        1.5066667057        8.3485354016
  H         3.9504694195        0.1545277592        9.1246689877
  H         4.9482762773        0.7899633161       10.2950934437
  C         6.4740366870        2.3449344916        9.0533173989
  H         4.8808291048        2.1291008887        7.6228960591
  H         5.7998908699        0.6295184948        7.8504976425
  C         7.8025694849        1.7245082783        9.2629555314
  H         6.5507040185        3.2660830599        8.5440828629
  H         6.2299625897        2.6184237507       10.0469406928
  C         9.0153347907        2.6219658905        9.2940999773
  H         7.8292065054        0.9069439336        8.4555374168
  H         7.6900654779        1.0886831802       10.1208273283
  C         8.7331679085        3.9627179229       10.0240285773
  C         9.3854900082        3.3522647433        8.0195488344
  C        10.1626989036        1.8296425328        9.9240450128
  C         8.8493547152        5.0550216426        9.1915331626
  C         8.3586292368        4.3405259178       11.3090338870
  C         9.3404301114        4.7124076420        7.9787544594
  C         9.9027779655        2.7967128019        6.8280535683
  H         9.7213873404        1.3317071423       10.8211219131
  H        10.4761625517        1.0078749173        9.3167971642
  C        11.4324807255        2.6870111003       10.3364816027
  S         8.5058053522        6.5971692147        9.9348869577
  C         8.1940510224        5.7132504587       11.4436097965
  H         8.3259773262        3.5920838838       12.1435327968
  C         9.6072037471        5.4420282906        6.8443026642
  H         9.9705383156        1.6605990802        6.7811299102
  C        10.2019839986        3.5397729482        5.7009085652
  H        11.1465559454        3.7236186968       10.5218858476
  H        12.1478439249        2.7698573747        9.5566189682
  C        12.2021444209        2.1339030713       11.4982846898
  C         7.6857076171        6.4285530811       12.7166590662
  C        10.0643621091        4.8331187551        5.6493444769
  H         9.5678990620        6.5049099045        6.8404273801
  C        10.6633406621        3.1902504221        4.4347841377
  H        13.1288994140        2.7774815192       11.5083684354
  H        12.5464406657        1.2641183631       11.0662964477
  C        11.4488357609        2.1478973768       12.8243982610
  C         7.5837976954        7.8454639895       12.9746904701
  C         7.2299502124        5.5023600897       13.7780890401
  C        10.5557119137        5.6008179083        4.4255749889
  C        10.9257453692        4.3182373639        3.6477999252
  S        11.0956890811        1.6881319850        3.6269538396
  H        11.1835907655        3.2673801773       13.0013275203
  H        10.5088797644        1.6713728379       12.7245616654
  C        12.3017455495        1.7646657707       14.0864604724
  N         7.8483541535        8.9460988297       12.0967630177
  C         7.2348207750        8.2452216366       14.2370081324
  C         6.8374562177        5.9652233470       15.0191100535
  H         7.2615301264        4.4423812995       13.6865390799
  C        11.8817848127        6.4244695862        4.7474442102
  C         9.5267008329        6.4225322024        3.6089241406
  C        11.4637273892        3.9677974498        2.3470678255
  C        11.5243990976        2.5964997571        2.1763804830
  H        13.3245812009        2.0668559847       13.8573560657
  H        12.1742979419        0.6539839215       14.2007192264
  C        11.8700981810        2.5067512853       15.3842051658
  S         7.8433832568       10.3122206747       13.0022116447
  N         7.2550382040        9.6510094435       14.3920159802
  C         6.8401889953        7.4465587471       15.3441837206
  H         6.6222420282        5.2256123025       15.7130131704
  H        11.7132096421        6.9975641555        5.6013731280
  H        12.1069868466        7.0909522804        3.8796100617
  C        13.1220594185        5.5856638105        5.1307073605
  H         9.3696360600        7.3031641427        4.2123877038
  H         9.9952044138        6.8427821788        2.7792826536
  C         8.2381180890        5.6554157854        3.3337918653
  H        11.7411512155        4.6862663940        1.5873743276
  C        11.8104421528        1.8696678808        0.9101842221
  H        11.8611078893        3.6071029940       15.1708213151
  H        10.8392062241        2.2782050111       15.7178863619
  C        12.8387266798        2.2597745705       16.4799238601
  C         6.3881595102        8.0881548744       16.5430437414
  H        12.7652850225        4.8598649208        5.8169634552
  H        13.4554318069        4.9818011660        4.2521241361
  C        14.3000501128        6.4105510287        5.7105377404
  H         8.0649021731        4.9130903211        4.1515890908
  H         8.3799245893        5.0434848803        2.4828320223
  C         6.9753062823        6.4222762349        3.1330650125
  C        11.8303559717        0.4447208728        0.6886779920
  C        12.1461985186        2.7224920862       -0.2242947502
  H        13.7632137006        2.7544102399       16.2029987703
  H        13.0556301750        1.1364985827       16.4117617758
  C        12.2477241202        2.5196836746       17.8825637874
  H         6.6965480551        9.1224979046       16.6216213395
  C         6.0615755149        7.5971351551       17.7723573923
  H        13.9441418446        7.0156461257        6.5613823831
  H        14.6355736770        7.1854243486        4.9443287835
  C        15.4562650571        5.5886324972        6.1360258132
  H         6.8159326781        7.0364700211        4.0169883583
  H         7.1412063075        7.1060773239        2.3198457642
  C         5.7762478246        5.5173115085        3.0572516653
  N        11.5500065127       -0.4745513223        1.6967642126
  C        12.2265244558       -0.1481507487       -0.4822519984
  C        12.4872233994        2.0506118247       -1.4355372481
  H        12.2668130878        3.8101360974       -0.1418439773
  H        11.8499877435        3.5218003564       17.8595611837
  H        13.0111262903        2.5622630224       18.6488038530
  H        11.4139729283        1.9026498042       18.1622306950
  S         5.9236507438        5.9500168546       18.2546370485
  C         5.7809688714        8.6108739286       18.8297953998
  H        15.0671871262        4.7554298256        6.6672847647
  H        15.9525983623        5.1115832494        5.1980395076
  C        16.4725554692        6.3254698565        6.9252109651
  H         5.5437905776        5.3321396410        4.1113698875
  H         6.0494179332        4.5586135587        2.7186547424
  C         4.5363278248        6.0147410757        2.3164302388
  S        11.7661904036       -1.9887038617        1.1335415452
  N        12.1683578930       -1.5304515463       -0.3991250976
  C        12.5807368123        0.5610979568       -1.6117200268
  H        12.6511445765        2.7062120050       -2.2630308686
  C         5.4845671923        6.6388756364       19.8440759007
  N         5.4896588150        8.0028730524       19.9270944555
  O         5.9779595576        9.7994413563       18.6582624074
  H        16.8086998619        7.1660280925        6.4316098785
  H        16.0501334633        6.6722576361        7.8832247852
  C        17.6611791368        5.3835821092        7.1613332142
  H         4.7435200699        6.0758167488        1.3041298011
  H         3.7477855857        5.3432587805        2.5933260119
  C         4.1909497160        7.3943131637        2.8399400967
  C        12.9515016535       -0.1694965523       -2.8331092220
  S         5.2689383206        5.7328631829       21.3374191311
  C         5.3759002262        8.6467444838       21.2201274979
  H        17.6860160659        5.1368550228        8.2129138499
  H        17.5621693330        4.5581871942        6.4941198864
  C        19.0153433133        6.0268942323        6.9365950159
  H         4.7981419608        7.6657455514        3.7061999775
  H         3.1359565357        7.4370670096        3.1842109165
  C         4.4565087593        8.5638229785        1.8630561571
  H        12.6940585525       -1.2156776510       -2.8197409065
  C        13.3551012901        0.2269367782       -4.0794841647
  H         4.6519215807        8.1626405236       21.8638676421
  H         4.9556373851        9.6177923513       21.0830407100
  C         6.8753946019        8.6716342264       21.8237199236
  H        19.7916904788        5.4459948693        7.4352150214
  H        19.1381089940        7.0570729586        7.3207607793
  C        19.2761237746        6.1996269418        5.4430924730
  H         5.3993768047        9.0926836448        2.1565223340
  H         4.6193331549        8.2219296720        0.8225775763
  C         3.2751755411        9.4621522109        1.7979052544
  S        13.8368102044        1.8320571792       -4.4571233172
  C        13.4431390671       -0.7721420687       -5.1108922816
  H         7.5954126308        8.5120643115       21.0785121677
  H         6.8717319744        7.9585276749       22.6785629324
  H         7.1536066854        9.6843013682       22.1509716252
  H        18.3402012148        6.6299238756        4.9929437973
  H        20.0887329147        6.8417596955        5.3394803186
  H        19.5042150906        5.2696724782        4.9676268563
  H         3.5843471616       10.4696317771        1.4319642736
  H         2.4793763956        9.0253968149        1.2272949678
  H         2.8430678153        9.5924868602        2.7896590676
  C        14.1903628110        1.1785225165       -6.0522956391
  N        14.0284708266       -0.2056090227       -6.1626278595
  O        13.2048160496       -1.9694526668       -4.9969647419
  S        14.7891286186        2.0586886685       -7.4575144696
  C        14.3346267016       -1.0518855558       -7.2949124947
  H        14.5657415284       -2.0216810868       -6.8561874605
  H        15.2819951635       -0.8386258386       -7.8015566045
  C        13.0779860947       -1.0893789773       -8.2178691315
  H        13.0327243573       -0.4849220414       -9.0886616872
  H        12.1247200905       -0.9356014435       -7.6551426637
  H        13.0428126697       -2.0705147630       -8.6774268736
