352
 i =    40400, time =    20200.000, E =        99.9763004814
  H         9.5151449919        5.0552367329       31.9102649810
  C        10.0842385818        5.7453006558       32.4457306862
  H         9.3811035609        6.2555369890       33.1263660258
  C        10.6246161915        6.8370171070       31.4464844527
  C        11.2582878851        4.9581695635       33.1457674267
  C        11.2230876262        6.2984189206       30.1626123492
  H         9.7944762609        7.5292763514       31.3018290809
  H        11.4374778317        7.4036391972       31.9144278366
  H        11.6977081339        5.5502572953       33.9230599366
  H        10.7950624113        4.1421868298       33.7118873527
  H        12.0234731543        4.6464451172       32.4178346251
  C        10.1450350807        5.9271042330       28.9917532028
  H        11.9175909353        5.4958836553       30.1118462532
  H        11.8383006955        7.1734381409       29.7737184211
  C        10.7081892884        5.6706009005       27.6300536405
  H         9.5501272273        5.1000088707       29.3846402138
  H         9.4258708289        6.7327114172       28.8994991798
  C         9.7887985497        4.9511242203       26.6401908253
  H        11.6641070040        5.1715319089       27.7341371750
  H        10.9502123583        6.6957793832       27.1857958245
  C         8.5196107633        5.7903313757       26.3941474721
  H        10.2958767153        4.9095898546       25.7284516356
  H         9.6334717342        3.9039937173       27.0776353430
  C         7.3667330022        5.0768590175       25.6674095632
  H         8.1865581636        6.0565733603       27.4485629121
  H         8.8900480810        6.7678932477       25.9119736355
  C         6.9428183993        3.7570442004       26.4101223934
  C         7.7889477643        4.2893042333       24.3965213005
  C         6.1622664352        6.1100189016       25.3964858395
  C         7.0008948981        2.6600338818       25.5584359610
  C         6.3556282683        3.4341106216       27.6660432194
  C         7.4977450206        2.9874416501       24.3202484708
  C         8.3635960001        4.8266551522       23.2360465927
  H         6.4262513939        6.8731137446       24.5862533484
  H         6.0965997383        6.7676846780       26.2234077933
  C         4.8055846738        5.3635105256       25.1020527757
  S         6.5618190635        1.1479176851       26.3897810737
  C         6.1734179827        2.0919722203       27.8046163322
  H         6.2241422003        4.1988320818       28.4946880183
  C         7.7964813012        2.2707157482       23.1436259812
  H         8.5809320994        5.8867643739       23.3278769405
  C         8.6540273383        4.1741663751       22.1046143949
  H         4.8680030208        4.5822820916       24.3818095529
  H         4.4672467774        4.8789021164       26.0151648630
  C         3.5459949237        6.2461996565       24.8609016738
  C         5.6655748163        1.4012826031       29.0534231224
  C         8.4853880986        2.8558360090       22.0178013103
  H         7.6912720789        1.2045728489       23.0695738686
  C         8.9535257749        4.6515778981       20.8182638897
  H         2.8758381641        5.7323800791       24.2109027318
  H         3.7981636269        7.2071848972       24.4392933043
  C         2.7173426735        6.4238705833       26.1122611083
  C         5.6580585894       -0.0359330453       29.2731433859
  C         5.2000172189        2.2321553682       30.2152179562
  C         8.8666024424        2.1782458592       20.7328021109
  C         9.2020464029        3.5511940773       20.0282907283
  S         9.2601020387        6.1788631656       20.0387392159
  H         2.2677172184        7.4280114818       26.1173770508
  H         3.3343926576        6.4708474943       27.0116888375
  C         1.6372801205        5.3750697363       26.2466602950
  N         6.0966553529       -1.0608451899       28.4643351746
  C         5.4295761876       -0.5650083456       30.5063090695
  C         4.8396591584        1.5724863290       31.4171184817
  H         5.1597873667        3.3023182062       30.3161425474
  C         7.6978213664        1.3907633973       20.0292736548
  C        10.1277364043        1.3067006420       20.8072082469
  C         9.5103991783        3.9521484952       18.7273649760
  C         9.6146947129        5.3014898494       18.5740851762
  H         1.0116902693        5.5360662790       25.3132883051
  H         2.0397353330        4.3352525906       26.1303329253
  C         0.7682984469        5.5658954150       27.5302812480
  S         5.6934982905       -2.4848410796       29.0452187149
  N         5.3918635520       -1.9448011770       30.5253864276
  C         4.9732310259        0.1104271383       31.6363515898
  H         4.5063277418        2.1520018541       32.2008700988
  H         7.5382606329        0.6000440173       20.8045450868
  H         8.0003577795        0.6683775302       19.2929344165
  C         6.5024524854        2.2742350472       19.7135195431
  H        10.2216429153        0.8848552111       19.7875625155
  H         9.7626632775        0.5319664939       21.5387141873
  C        11.3741844714        2.1853251524       21.1986998770
  H         9.5916884571        3.1341242672       17.9466375771
  C         9.9574989610        5.9543167135       17.2646350847
  H         0.0515286651        4.7165764096       27.4897668352
  H         0.2996138352        6.5601879276       27.6096688044
  C         1.6901070962        5.3279964655       28.7790319862
  C         4.6843634293       -0.5616159679       32.8544486433
  H         6.7324168167        3.3106779422       19.5442764994
  H         5.7286607145        2.3602860814       20.4304691009
  C         5.8724927542        1.6170131046       18.4372156800
  H        11.0885598847        2.9087927062       22.0423732386
  H        11.5657211041        2.8020150315       20.3525366591
  C        12.5570451262        1.3940922906       21.4931068478
  C         9.9781464939        7.3562253498       17.0811718021
  C        10.1941805901        5.1574030117       16.0533061052
  H         2.1580881301        4.3710714417       28.6616210570
  H         2.5057743040        6.0680002515       28.8505102546
  C         0.9090494434        5.4150296878       30.1756443570
  H         4.8732044941       -1.6447281687       32.8437400868
  C         4.3848334512       -0.2005566262       34.1508286869
  H         5.6466972064        0.5433975017       18.6017536083
  H         6.6142218084        1.6299280699       17.6521074232
  C         4.5069341998        2.1244058822       18.0222720925
  H        12.3313154059        0.7671116319       22.3831015709
  H        12.7770997670        0.7182502199       20.6890290296
  C        13.6124903896        2.4583967083       21.7618764782
  N         9.7153169249        8.3133829251       18.0166418243
  C        10.3571030912        7.9661640692       15.8970370351
  C        10.5606070641        5.7716414667       14.8512526207
  H        10.1682259122        4.0454040582       16.0711803226
  H        -0.1829281816        5.7650735871       30.1098781563
  H         1.0251215454        4.4755618147       30.5954960753
  H         1.3231085335        6.1023676966       30.9231803918
  S         4.1432092161        1.4949848992       34.6375740452
  C         4.4359480536       -1.2394244181       35.2620498554
  H         4.2698355168        3.0242746076       18.5872139571
  H         4.6519124508        2.4687520013       16.9436418801
  C         3.3879304838        1.2015891710       18.3426483812
  H        13.0794684571        3.2535571908       22.1861876257
  H        14.1728998973        2.7795210473       20.8486588983
  C        14.6762610375        1.8219851517       22.6600912973
  S         9.7775882652        9.8103563077       17.3535526317
  N        10.3196236741        9.3496891021       15.8978326363
  C        10.6188281277        7.2381033770       14.7290790555
  H        10.6175977920        5.1226082866       13.9698548893
  C         3.8823935837        0.7285661994       36.2525951524
  N         4.0636003128       -0.6061776005       36.3597668661
  O         4.4519237455       -2.5162116198       35.0332746389
  H         2.5565255210        1.8924026945       18.1909043465
  H         3.3629343203        0.8984008509       19.3792199012
  C         3.2217578019       -0.0391918071       17.4235140183
  H        14.2548318244        1.7212622586       23.6813706586
  H        14.9455571192        0.8194421936       22.3035090011
  C        15.7184927478        2.8222049071       22.8248513424
  C        10.8369053095        8.0165861821       13.5320831086
  S         3.2910727394        1.4630537883       37.6318296672
  C         3.9114328090       -1.3387287223       37.6039075294
  H         3.0691803533        0.1682708828       16.4249297752
  H         4.0971954288       -0.6446729159       17.4421621675
  C         2.1515943078       -1.0012631422       17.8450843164
  H        15.3054433836        3.6475271132       23.4404191664
  H        16.0154480178        3.2655978450       21.9222620195
  C        17.0078856210        2.2904700513       23.4353904119
  H        10.4473273529        9.0102064741       13.5882707258
  C        11.5351046194        7.7370739844       12.3921723257
  H         3.1800689591       -0.8381382448       38.3139149698
  H         3.4519912223       -2.3115239180       37.4595158166
  C         5.2910893561       -1.5239856948       38.2868727964
  H         1.1406149713       -0.4878732047       18.0409417362
  H         2.4121832552       -1.4697207845       18.8143819424
  C         1.9756173388       -1.9930070447       16.7094122855
  H        17.2789736523        2.9449551596       24.2839698072
  H        16.7919611828        1.2938038989       23.7898832042
  C        18.1418284281        2.2468740451       22.4534776068
  S        12.2355843735        6.2489070086       11.9707749608
  C        11.4450342007        8.7706112813       11.2420123704
  H         5.3103278608       -0.8432310986       39.1652626674
  H         5.3997201257       -2.5502085737       38.5772209491
  H         6.1065147674       -1.3645060127       37.5747940969
  H         1.5397302345       -2.8108797380       17.1691409251
  H         2.9383194855       -2.1740457153       16.3179359519
  H         1.2346186575       -1.5588159058       16.0099952766
  H        19.0356484614        2.2141226106       23.0271992432
  H        18.1247773161        3.0352263001       21.6439152160
  H        18.0836319768        1.3293760149       21.8954835790
  C        12.5050839443        6.9790384805       10.3543256173
  N        12.1850794386        8.3037396340       10.2227033625
  O        10.7799140010        9.7987146180       11.3004295260
  S        13.3703743209        6.1557848315        9.0608059298
  C        12.3810319818        8.9840642668        9.0084721538
  H        12.3004623227       10.0872695628        9.0915341923
  H        13.3647963895        8.8375931822        8.5436859061
  C        11.2886006235        8.5913728074        7.9740112436
  H        11.2599766692        9.1756549841        7.0573375551
  H        11.2777591197        7.5323346671        7.6636560746
  H        10.3419766279        8.7003841074        8.5775652153
  H         5.0930777835        1.4685825054       12.4886046552
  C         4.5573083635        2.4064475565       12.6051806099
  H         5.2998682155        3.1622707033       12.3124782432
  C         3.4339949753        2.6299556732       11.5466147830
  C         4.1932830579        2.6849919842       14.0687318841
  C         4.0307226386        2.7073147853       10.0855729557
  H         2.8503034024        3.4424280022       11.8717347601
  H         2.7655424866        1.8115780909       11.6043226262
  H         4.5152377906        1.7642029352       14.6459960877
  H         3.1440672781        3.0241690114       14.1744182649
  H         4.8303811704        3.5795828249       14.2892944938
  C         4.8110993813        1.4269066364        9.6925635049
  H         3.2629354563        2.9083474102        9.4048054242
  H         4.6604471734        3.5913008554        9.8844561855
  C         5.4771364413        1.6638189754        8.3202095269
  H         4.1964452773        0.5580472157        9.5794175397
  H         5.6549331530        1.1663352212       10.3399400635
  C         6.7722687927        2.4625127464        8.3270292291
  H         4.7523772875        2.0010152068        7.5997982140
  H         5.6683339125        0.6645346564        7.9205426602
  C         8.0198791274        1.6541200616        8.8118560432
  H         6.9651029579        2.7543127995        7.2906639925
  H         6.5998100854        3.3787833675        8.8921228953
  C         9.2666736800        2.5899197468        9.1325185592
  H         8.2898635261        0.8648212546        8.0557077854
  H         7.6946829033        1.0961026654        9.7522892939
  C         8.9437448504        3.9192258301        9.8537106535
  C         9.7498436394        3.3158573800        7.9184311721
  C        10.5455695177        1.7758673837        9.7853869402
  C         9.1919519849        5.0442930121        9.0901386982
  C         8.4597452373        4.3114216777       11.1417317176
  C         9.6159361401        4.6365900079        7.8003038473
  C        10.2427468890        2.6910033868        6.7330607844
  H        10.1914303854        1.2650519017       10.7437282112
  H        10.8442474785        0.9179055111        9.1782773664
  C        11.7591872720        2.5599042741       10.1097888541
  S         8.7805015591        6.5817475547        9.8266318936
  C         8.3001418236        5.6873895522       11.2456931583
  H         8.1125656752        3.4992156198       11.7913690448
  C         9.9421803183        5.2540736276        6.5833363573
  H        10.4208907738        1.6476714922        6.8212025361
  C        10.5447357928        3.3047618023        5.5585739642
  H        11.6241735311        3.6058437621       10.1907673148
  H        12.4284089854        2.5621679931        9.3534879600
  C        12.5475278857        1.9922768026       11.2740226512
  C         7.6891444382        6.3092274870       12.3831060303
  C        10.3367027104        4.6213613957        5.4098162931
  H         9.8165210347        6.2855347526        6.6172326580
  C        11.0219324439        2.9164013181        4.2981008455
  H        13.5610999398        2.4187512931       11.3334334024
  H        12.5091121449        0.8887343272       11.2167798958
  C        12.0261716195        2.4822616875       12.6283440824
  C         7.7199018115        7.7089045914       12.6938372664
  C         7.0927990000        5.5354328372       13.5283608014
  C        10.6219257795        5.2885505621        4.0862626664
  C        11.0401416202        4.0015251926        3.4136863791
  S        11.2809919561        1.4004021194        3.4987104759
  H        12.4640006242        3.3778058883       12.8310360301
  H        10.9585734308        2.5722535221       12.5322817881
  C        12.5369270705        1.5637794939       13.7724853304
  N         8.0860377674        8.7404831976       11.7908838894
  C         7.4098360171        8.2969886419       13.9011847254
  C         6.7506471604        6.1287139034       14.7637090402
  H         6.9261542370        4.4876488572       13.4381922545
  C        11.8382592492        6.2239285050        4.2022356390
  C         9.2673735398        5.9058543266        3.5251629990
  C        11.3635749823        3.6155096262        2.0860341268
  C        11.6222263237        2.2787829517        2.0383069586
  H        13.4872881634        1.0943619540       13.4558010952
  H        11.7370207875        0.7785578953       13.9729014769
  C        12.8947782323        2.3201152704       15.0288809535
  S         7.9539760909       10.2036873193       12.4834157641
  N         7.6417597490        9.6974836103       13.9325058221
  C         6.9608428996        7.5476746624       15.0049634940
  H         6.3768064724        5.4095297327       15.5139774900
  H        11.7152660512        6.7883305156        5.1727632847
  H        11.8696710272        7.0442418451        3.4333175445
  C        13.2135341111        5.5822852729        4.3774361058
  H         8.9134800505        6.6933626937        4.1967052250
  H         9.5922134096        6.2607487788        2.5018656658
  C         8.1030868370        4.9951863976        3.3695758301
  H        11.2417185964        4.3499148537        1.3042304164
  C        11.8178371481        1.5229258661        0.7890729560
  H        13.9176369085        2.4158576816       15.1089431163
  H        12.4646458662        3.3639514721       14.9695196529
  C        12.3154420335        1.5258093188       16.2338878163
  C         6.7526877125        8.1754885249       16.3273211051
  H        13.0174405810        4.9283238877        5.2102051328
  H        13.4791784900        4.9019104630        3.5654197448
  C        14.4287739438        6.6229120974        4.6465998357
  H         7.8121524583        4.7144453917        4.3985291665
  H         8.4378108154        4.0698001029        2.8866294903
  C         7.1408794332        5.7533627446        2.5087764207
  C        11.7721548358        0.0896012374        0.5943069652
  C        12.2623579317        2.3152380806       -0.3611464001
  H        12.5272349931        0.5193883296       16.0750928968
  H        11.2506570238        1.6106152814       16.1643193600
  C        12.7492206957        1.9764259241       17.6838697522
  H         6.8189318272        9.2840747107       16.2740544852
  C         6.3821663587        7.7379577674       17.5788995871
  H        14.1841621192        7.3462689608        5.4369255929
  H        14.4562319206        7.1916091829        3.7206845179
  C        15.8408304693        6.0359334839        4.8280774372
  H         7.2802057808        6.7732110724        2.7434489398
  H         7.3839174465        5.7367338989        1.4977386673
  C         5.7285996397        5.3092060694        2.6566690773
  N        11.4784924699       -0.8174757369        1.6110448194
  C        11.9819247125       -0.5287505594       -0.5943130571
  C        12.2797200640        1.7057531298       -1.6353103514
  H        12.2366439796        3.4044196464       -0.2926776418
  H        12.3117033986        1.3825977078       18.4367153003
  H        12.4583091178        3.0577115768       17.7473210074
  H        13.8042260361        2.0695484369       17.7108395541
  S         6.2664408673        6.0625459836       18.1356088852
  C         5.9909317590        8.7373390391       18.6339669234
  H        15.9296772560        5.2422566236        4.0663916415
  H        16.5663709376        6.8238969011        4.5859787011
  C        16.0142123586        5.6875749729        6.3094978980
  H         5.3965814018        5.3558408624        3.7188088555
  H         5.4728640335        4.2369150415        2.3994316503
  C         4.8377811872        6.1818856534        1.8103390129
  S        11.4908559557       -2.3750576560        1.0539100714
  N        11.9159996593       -1.9554406530       -0.4604960124
  C        12.2236334876        0.2439842457       -1.7499985621
  H        12.5485041176        2.3539217807       -2.4848078053
  C         5.7249359216        6.7372093788       19.6913543746
  N         5.7076795346        8.0877757864       19.7529659369
  O         6.0892347783        9.9298195497       18.5077545218
  H        16.0961629936        6.5845852680        6.8394421082
  H        15.2131276137        5.0692926737        6.7214171868
  C        17.3442602731        4.9256933238        6.5800991961
  H         5.3491264636        6.5182373317        0.9370016473
  H         4.0043333876        5.7217296359        1.3675480976
  C         4.3816515253        7.4595522720        2.4983927372
  C        12.4714873653       -0.4900952363       -2.8986205220
  S         5.4686187945        5.7769418476       21.1539850712
  C         5.4555204218        8.7134665619       21.0528038174
  H        17.4251692531        4.7846773924        7.5789304341
  H        17.2287835111        4.0135720634        6.0649889814
  C        18.5702664213        5.6732866923        5.9486953989
  H         5.0056116519        7.4505451471        3.4202270844
  H         3.3502115895        7.4324880594        2.8304659924
  C         4.6631749732        8.8038513395        1.8499411248
  H        12.5076604317       -1.5746541959       -2.7909870154
  C        12.8680366878       -0.1918264665       -4.1761581188
  H         4.7516560697        8.1961001102       21.7596219951
  H         4.8939969626        9.6052115941       20.9372897302
  C         6.7281617926        9.0523749024       21.7680989818
  H        18.4759809421        6.7322302788        5.8948899133
  H        18.5774496027        5.3240362238        4.9214149501
  C        19.9241473348        5.3324904528        6.5192383377
  H         4.6412860930        9.5729787283        2.6182868398
  H         5.7331852174        8.7553664383        1.5384786258
  C         3.9657450930        9.2717487192        0.6019877611
  S        13.2692742163        1.3429021066       -4.7314675708
  C        13.2370616758       -1.4100237935       -4.9957951833
  H         6.5590335094        9.4785220249       22.7348580235
  H         7.1197582575        9.8118845825       21.0850469974
  H         7.4591098398        8.2113869675       21.8037471981
  H        20.3108558069        4.3435184022        6.4338913805
  H        20.6872928283        5.9706586527        6.0557989657
  H        20.0314623935        5.5224865864        7.5701076947
  H         4.3779762141       10.1493555236        0.1758509784
  H         4.0279672802        8.4794232787       -0.0974282824
  H         2.9465579688        9.4974494186        0.7888127641
  C        13.9971245355        0.3742131068       -6.1325416188
  N        13.8447121814       -0.9732184006       -6.0944955058
  O        12.8224373560       -2.5349218477       -4.7566554413
  S        14.4163697150        1.0541470534       -7.6845221853
  C        14.1138396463       -1.9739384865       -7.1936561118
  H        14.2616479892       -2.9487136691       -6.7149479970
  H        15.0113498249       -1.6743113860       -7.7722778380
  C        12.8760545927       -2.0520974550       -8.0517387228
  H        11.8854608784       -1.9960922770       -7.4998207737
  H        12.8339884640       -2.9856672640       -8.5385993387
  H        12.8790543578       -1.2778432915       -8.8174156885
