352
 i =    21000, time =    10500.000, E =        97.1780585382
  H        10.9654186644        4.3200968046       32.1082688223
  C        10.7143856954        5.3118869395       32.4702832629
  H         9.6167184265        5.4893656826       32.3574807276
  C        11.2441252490        6.4525915503       31.6382603869
  C        11.0081846164        5.4423133141       33.9963521107
  C        11.4567036504        6.0269160647       30.1845937529
  H        10.5947322662        7.3154706600       31.7447065742
  H        12.1032523918        6.8617903247       32.1438212983
  H        12.0574308602        5.1926097866       34.3373254646
  H        10.7412609425        6.3419058264       34.4571336827
  H        10.4615906009        4.5974382964       34.3726010917
  C        10.2125132353        5.9155487579       29.3892820924
  H        11.9416988490        5.0715107865       30.2025876981
  H        12.0484635070        6.7274889755       29.6812965538
  C        10.6208280206        5.7471485845       27.8759760298
  H         9.7394008546        4.9784210339       29.6248238859
  H         9.4478898297        6.7081938853       29.6197594235
  C         9.6324701179        4.9726020278       26.9948325017
  H        11.4821214900        5.1075908722       27.8349483127
  H        10.9098338239        6.6760741426       27.3399006683
  C         8.4818404027        5.7694304711       26.4394431138
  H        10.1838029154        4.5074554044       26.2816808980
  H         9.1809011824        4.1369064633       27.6468534075
  C         7.4729094109        5.0006561630       25.5576986302
  H         7.9276938133        5.9229075139       27.3072766229
  H         8.7707428600        6.6384431841       25.8871919684
  C         7.0483601627        3.6693312995       26.1705154942
  C         7.8979775834        4.3155401141       24.2467737469
  C         6.2722535929        5.9162801917       25.2741091523
  C         7.3186388292        2.5375093733       25.4628941205
  C         6.4788513282        3.3067888911       27.4017528342
  C         7.9548025479        2.9689081927       24.2590236751
  C         8.3343585101        4.8731509578       23.0988118393
  H         6.3668216520        6.5437130839       24.3864081697
  H         6.0335979766        6.6329347129       26.1006495779
  C         4.8891428722        5.2412003131       25.0973492923
  S         6.7588493013        1.0972424257       26.1891315024
  C         6.2052381225        1.9504465930       27.5807428545
  H         6.1775071018        4.0396023617       28.0611346913
  C         8.4324323456        2.2969382155       23.1665625707
  H         8.3698177206        5.9943146714       23.0416137959
  C         8.7531118626        4.1903910205       21.9813688765
  H         4.9917460695        4.5383978943       24.3515322535
  H         4.6060460239        4.6754772508       25.9680817936
  C         3.6167858867        6.0853976894       24.7452682285
  C         5.7785163736        1.2633489418       28.8702723854
  C         8.7460452259        2.8253343127       21.9110351903
  H         8.4992440865        1.2716564734       23.2648388206
  C         9.0772751389        4.5488207293       20.7034418709
  H         2.9501076250        5.4651585528       24.0802034186
  H         3.9593349849        6.9100833920       24.0528000496
  C         2.8826543743        6.4385760212       26.0125129139
  C         5.7086446440       -0.1299433889       29.1421252630
  C         5.4680276524        2.1986595150       29.9749456086
  C         9.0218748107        2.0520266380       20.6224070360
  C         9.1457389383        3.4550203315       19.9211579264
  S         9.2266636267        6.0240480565       19.9507446836
  H         2.3955828211        7.3696781710       25.8087366234
  H         3.6974434978        6.7113340074       26.6845700612
  C         2.0000355430        5.3452570748       26.5731032014
  N         6.0513438389       -1.0762091292       28.2122690090
  C         5.4269589364       -0.6216531981       30.4289404012
  C         5.0816872623        1.6790231826       31.2052615193
  H         5.3357621110        3.2585764440       29.7633254729
  C         7.7768918953        1.2577108579       20.1066117711
  C        10.3710888037        1.2608896600       20.6675905881
  C         9.5238741616        3.8028481109       18.5810946638
  C         9.6063875138        5.1808973324       18.4389639849
  H         1.3048438595        5.1238874210       25.7436483055
  H         2.5932193271        4.5503477345       26.7997491635
  C         1.4293905947        5.8744607712       27.8254604117
  S         6.0525727059       -2.5405011883       28.9213597040
  N         5.5881833343       -2.0008022610       30.3724370721
  C         5.0921762017        0.1877536139       31.5405873232
  H         4.7119202116        2.3853893900       31.9226848771
  H         7.4913229493        0.6432603898       20.9486160787
  H         8.1377579145        0.5186575618       19.3775191730
  C         6.5941144955        2.0378677646       19.4810539391
  H        10.8045653524        0.9504215659       19.7479463869
  H        10.2487147507        0.3502026134       21.2529678752
  C        11.4877049684        2.1096216205       21.3295270070
  H         9.7189560822        2.9531502711       17.8950613460
  C         9.9208479774        6.0306468764       17.1718223922
  H         0.3529124009        6.0544255183       27.6844123455
  H         1.7923366994        6.9102034124       28.0365269049
  C         1.5707981253        5.0583793576       29.0222515358
  C         4.8686539234       -0.4903965261       32.8117723260
  H         7.0704117392        2.4124322076       18.5878275185
  H         6.5303806180        2.8690149426       20.1217056991
  C         5.2928562494        1.2391590553       19.1517251194
  H        11.2214335757        2.4903361521       22.2744905659
  H        11.8649509481        2.9245195218       20.7804616130
  C        12.8149779436        1.2930103746       21.4455389938
  C        10.0884360567        7.4711055926       17.0703436164
  C        10.1793235577        5.2186385371       15.9192250397
  H         1.2000103806        4.0785303571       28.7019174067
  H         2.5953734091        5.0069256404       29.3151069810
  C         0.7585903865        5.6956955448       30.1539083382
  H         5.1088379817       -1.5354458058       32.6646543921
  C         4.6163872151        0.0668592418       34.0583496266
  H         4.9863710902        0.7442908956       20.0677113685
  H         5.5383848578        0.4838621703       18.4659646814
  C         4.2347709832        2.1609366943       18.5749448243
  H        12.5381113671        0.4619955162       22.1562758687
  H        12.8315207776        0.8205833383       20.4390397928
  C        14.0483332836        2.0615263650       21.7452506449
  N         9.9596942467        8.3129938964       18.1559211300
  C        10.3972814329        8.0845176913       15.8494680888
  C        10.5297654178        5.8852417742       14.7203778572
  H         9.8887443388        4.2070735934       15.7820487556
  H        -0.2051216983        6.0793190230       29.8616561299
  H         0.6863639013        5.1084150974       31.0633272188
  H         1.2922299858        6.6299132530       30.3567889635
  S         4.1884601806        1.6893811134       34.4252827996
  C         4.4500464341       -0.9062388143       35.1332903241
  H         4.1064053323        3.0005287389       19.2279671480
  H         4.6563361876        2.4990123983       17.6484040502
  C         2.8993340923        1.3920788709       18.4436161384
  H        13.9375429882        3.0079822939       21.3013379437
  H        14.9187798039        1.6288487509       21.2675786802
  C        14.3121039111        2.2558584097       23.2493961973
  S        10.2571337560        9.8262204144       17.5811976085
  N        10.5207581199        9.5221637254       15.9889727258
  C        10.7228366814        7.3422535245       14.6670871655
  H        10.4946401405        5.3861906347       13.7814259999
  C         4.0593100227        1.0752722566       36.0879111913
  N         4.1093619334       -0.2925629797       36.2393868784
  O         4.7759492376       -2.0982675109       35.0317853542
  H         2.0760384832        2.0169137713       18.1175811955
  H         2.6309876149        1.0735099134       19.4127620569
  C         2.8827483270        0.2478320481       17.4290734623
  H        13.5469195513        2.8701620440       23.6690034384
  H        14.1844359389        1.3341023176       23.8528691767
  C        15.6479155412        2.9884016470       23.4949548711
  C        10.9141224618        8.1290976577       13.5082764996
  S         3.4960107295        1.9495416551       37.5104227906
  C         3.9715644796       -0.9492000994       37.5068649209
  H         2.0622713402        0.2123899754       16.6923157524
  H         3.7455850426        0.2554233383       16.7442091249
  C         2.7736009794       -1.0831694773       18.0594501365
  H        15.6624447202        3.5709036371       24.4652190509
  H        15.6985534493        3.8129366106       22.8331358017
  C        16.8341483617        1.9935558363       23.5700364777
  H        10.8321084857        9.1709770239       13.4975188692
  C        11.4632194691        7.7597567525       12.3263626188
  H         3.2581230257       -0.4385707966       38.1136355004
  H         3.4992838540       -1.9345930754       37.3933921677
  C         5.2953038112       -1.0475164848       38.2016300688
  H         1.9012676758       -1.1058649824       18.6933929161
  H         3.6275473584       -1.1879376427       18.7980626504
  C         2.8641453680       -2.2171909510       17.1471452144
  H        17.1982060672        1.7465694769       24.5831084709
  H        16.4801179110        0.9807516341       23.2488100644
  C        18.0471734886        2.3969210431       22.7073256517
  S        12.0042307086        6.1733942445       11.8952137545
  C        11.5612916295        8.8037966268       11.2822781444
  H         5.5351052557       -0.1586724730       38.6859599664
  H         5.1136934331       -1.6795069934       39.0418363921
  H         6.1485684036       -1.4772229085       37.7076642240
  H         2.8528617517       -3.2218526719       17.4904658784
  H         3.6905854877       -2.1156042641       16.4369695918
  H         1.9673739868       -2.2513360860       16.5447927082
  H        18.9151211270        1.8415263182       23.0367404375
  H        18.1191853245        3.4859063933       22.9310665194
  H        17.8046734445        2.2921627142       21.6609863232
  C        12.2457250997        6.8835475964       10.3071582227
  N        12.1241185291        8.2583759097       10.1664242881
  O        11.2175326709        9.9561975027       11.3983158358
  S        12.6930759713        5.8504991636        8.9614857587
  C        12.4783045467        9.0171693729        8.9300117166
  H        12.8262910090       10.0108852761        9.1253463952
  H        13.3898320033        8.6298574608        8.5926642257
  C        11.2867263158        9.1041150331        7.9324032122
  H        10.2972693987        8.9995506371        8.3085968215
  H        11.2348884171       10.0317099422        7.4664801773
  H        11.6039081521        8.3069183203        7.3080765663
  H         5.0445741052        1.2092070506       13.0595060502
  C         4.6467676791        2.2184570462       13.0627976182
  H         5.5800578722        2.7679658712       13.0545545242
  C         3.6242250479        2.4282460553       11.8160102640
  C         3.9322047147        2.1978800032       14.3619279696
  C         4.3321524264        2.6322738012       10.4821373174
  H         3.0992941553        3.3468922207       12.0260911647
  H         2.8839825776        1.5844144200       11.7587349996
  H         3.1962699942        1.4485188450       14.3128475956
  H         3.4632513127        3.2085248946       14.4913590462
  H         4.4839959879        1.8636123002       15.2240686097
  C         4.8700069190        1.3632538671        9.7975616453
  H         3.5258226955        3.0554803479        9.8183536883
  H         5.0468876960        3.4065443370       10.7186392242
  C         5.5081384744        1.6174348697        8.3784878182
  H         4.0979462176        0.5837696623        9.5660933778
  H         5.6363387916        0.9125602342       10.3936182151
  C         6.6912007351        2.5358153378        8.5737115676
  H         4.8542403462        2.1572675697        7.7512746153
  H         5.6539124371        0.7044383499        7.8476447067
  C         7.9605307601        1.8154432400        9.0420133043
  H         6.9278762911        3.0660422217        7.6677721139
  H         6.4548549682        3.3294979888        9.2226047176
  C         9.1615769769        2.7316287950        9.4028504573
  H         8.2274698186        1.1400434668        8.2311492337
  H         7.7605443606        1.0929435658        9.8764865082
  C         8.7589534857        4.0334184319       10.1376792011
  C         9.5620646935        3.5050389282        8.1446114145
  C        10.3426043040        2.0597544510       10.1504115714
  C         8.9045053533        5.1868756228        9.3734593099
  C         8.1825528236        4.2895340678       11.3675222550
  C         9.4554772391        4.8478185134        8.1215894793
  C        10.0219271064        2.9227180468        7.0466844820
  H         9.9962579174        1.6019413123       11.0740846392
  H        10.7364836070        1.1995052105        9.5503922008
  C        11.5031666694        3.0506477416       10.4369014132
  S         8.5080564647        6.6198033243       10.1824796971
  C         8.0432103546        5.6595054618       11.5741918785
  H         7.8928292472        3.5005724108       12.0609083033
  C         9.8278120357        5.5205103055        6.9992650075
  H        10.1625180832        1.8603331141        7.0247623325
  C        10.3067758998        3.6049483577        5.8757608308
  H        11.1420594223        3.9799330213       10.8788794702
  H        12.0367013162        3.3020686784        9.4620568180
  C        12.6127892077        2.4989032979       11.3754519329
  C         7.5770178506        6.3239377180       12.8345861047
  C        10.2221565877        4.9595691752        5.7584399799
  H         9.6887896352        6.5958874343        7.0833117780
  C        10.8093135204        3.2024230622        4.6320266020
  H        13.3088618911        3.3305057485       11.5359173202
  H        13.1995266102        1.8001615494       10.7907196828
  C        12.2218901562        2.1459923944       12.7900434145
  C         7.6354092331        7.7606157630       13.0764017883
  C         7.1019041760        5.4166809434       13.9791608275
  C        10.6950147991        5.6229060628        4.4919760371
  C        10.9784848673        4.3084349933        3.7954217429
  S        11.0012175241        1.6815482251        3.8104480568
  H        11.5858675662        2.9363704665       13.1750821806
  H        11.7043595135        1.2466647027       12.7058454966
  C        13.4095768618        1.8768069089       13.6750429716
  N         8.1049131161        8.7309243803       12.1623611303
  C         7.2783294492        8.3163663531       14.3071520735
  C         6.8547023647        6.0409253263       15.1280768151
  H         6.9310661884        4.3389459426       13.8566521327
  C        12.0294149094        6.3931980597        4.6012108866
  C         9.5652764051        6.4449119610        3.8306340426
  C        11.3630537647        3.8789873207        2.5048406862
  C        11.3222678494        2.5287132215        2.3283365956
  H        13.9068985754        2.8062134860       13.7388858964
  H        14.0788650395        1.1779946735       13.1542620404
  C        12.9984721333        1.2539758736       15.0020741771
  S         8.0074840424       10.2072968558       12.8857027000
  N         7.3305504038        9.7066231231       14.3038878226
  C         6.8206806474        7.5550142559       15.3749578605
  H         6.3719403102        5.4699386482       15.8848118603
  H        11.8186089003        7.2522666678        5.2193749223
  H        12.2512504867        6.7880167737        3.6336653254
  C        13.2845340847        5.5916769889        5.0152734105
  H         9.3306148514        7.2570592124        4.4673732952
  H         9.8416109030        7.0625974450        2.9863507123
  C         8.3720169187        5.6567629139        3.3725954266
  H        11.6449042294        4.6164270637        1.7817521580
  C        11.6299001318        1.7472436032        1.0850575214
  H        12.5613569991        0.2678490543       14.8253485659
  H        13.9802408547        1.0046123572       15.4693614103
  C        12.1749935549        2.1688701880       15.8396967930
  C         6.6331048454        8.2321662828       16.5798672251
  H        13.2098769913        5.0913197070        6.0423008911
  H        13.6122318944        4.8961608063        4.2502905445
  C        14.5087384013        6.4514142642        5.3693082861
  H         8.0787735682        4.9688370759        4.1897328908
  H         8.6571086437        5.1828928099        2.4627705453
  C         7.1849790689        6.5833138582        3.0349950719
  C        11.6523984911        0.3541745037        0.9719030041
  C        11.8544667630        2.4216559601       -0.1952229386
  H        11.2376989755        2.0812413298       15.4075113228
  H        12.5000961695        3.1796445298       15.7284142528
  C        12.1560253844        1.7588805321       17.3096438532
  H         6.7120816165        9.2837759070       16.4973417332
  C         6.4846171220        7.6940412457       17.8764473062
  H        14.3559224515        7.0971449497        6.2610367913
  H        14.8266300280        7.1853263430        4.5266402376
  C        15.6654580153        5.4781061621        5.6160710930
  H         7.0709643011        7.3158876580        3.7673880148
  H         7.4827462929        7.1641324715        2.1627664150
  C         5.8751453138        5.8727010164        2.7542861612
  N        11.3118129005       -0.5636267934        1.9371599424
  C        11.9973277106       -0.3224966078       -0.2155774802
  C        12.2116388357        1.7600816578       -1.4202385721
  H        11.7556017416        3.5297561241       -0.2200815055
  H        11.3261653360        1.2051422771       17.5741730064
  H        12.1476299963        2.6859146930       17.9185935929
  H        12.9894364781        1.1665834451       17.5985483462
  S         6.2317131055        6.0520648027       18.2908095242
  C         6.4552736921        8.6728050466       19.0140177368
  H        15.6907213041        4.5348564699        5.1050741965
  H        16.5482915205        5.9243152391        5.2350623471
  C        15.6908096964        5.0331428199        7.0536179431
  H         5.5804780180        5.5227688784        3.7347248178
  H         6.0261325174        4.9812282437        2.2044810794
  C         4.7449388268        6.6240204210        2.2168649904
  S        11.6688767411       -2.0555210933        1.3630370988
  N        12.1381681957       -1.7045558190       -0.1164204216
  C        12.3221181646        0.3205795515       -1.4780190817
  H        12.5441746296        2.2586486658       -2.2850887830
  C         5.8759124119        6.6589175743       19.9543338768
  N         6.0790244993        7.9882651731       20.1351739231
  O         6.5746773754        9.9207286596       18.9334747704
  H        15.5912517749        5.9577822001        7.6154767963
  H        14.7955781519        4.4551430387        7.4394658141
  C        16.9532480862        4.3530334921        7.6092220691
  H         4.5777993140        6.3037929742        1.2143818072
  H         3.8801324262        6.3012807196        2.8586675469
  C         4.8196017866        8.1391283994        2.3457890533
  C        12.6118580193       -0.4456401351       -2.6624791765
  S         5.3585174392        5.7374258811       21.3387885040
  C         5.8845866995        8.6463404691       21.4508328670
  H        16.7775660234        3.9224831473        8.6226266095
  H        17.3004768131        3.5968531214        6.9994103473
  C        18.1542750940        5.3539053289        7.7627218375
  H         5.5560339536        8.4747569956        1.6737897540
  H         5.2153351466        8.4250366261        3.2626395964
  C         3.5371677383        8.7674466681        1.8300028303
  H        12.3047449908       -1.5230834833       -2.6155639149
  C        13.1598139523       -0.1189196388       -3.8942566310
  H         5.2126349720        8.1033948584       22.0951213387
  H         5.3454879057        9.5230992011       21.1470788299
  C         7.2766783937        8.8588325329       22.1233581191
  H        18.5907620806        5.4476651631        8.7502403486
  H        17.7403291887        6.2711272681        7.5095425523
  C        19.3154273727        5.0288233581        6.7466052543
  H         3.5309168875        8.6384852826        0.7196778060
  H         2.6488549350        8.3031180822        2.3281803865
  C         3.6282341492       10.3330560807        1.9181794927
  S        13.9180882525        1.4019058540       -4.3152224908
  C        13.0991353532       -1.1327684406       -4.9666840579
  H         7.4814258407        8.1362282608       22.9211006654
  H         7.4171394261        9.8423148578       22.4077130386
  H         8.1077755448        8.6622862041       21.4357599325
  H        18.9138503493        4.5641534001        5.8395886573
  H        19.8048928697        6.0077998450        6.5019819316
  H        20.0585926972        4.4050968557        7.1076280983
  H         4.2777742213       10.4981853738        2.8055255282
  H         4.0395603943       10.7419552671        1.0397105952
  H         2.6933766073       10.7974555537        2.1039712509
  C        14.2754782093        0.5732852774       -5.8831465573
  N        13.7929146720       -0.6387025654       -6.0171417418
  O        12.6995637796       -2.3036166445       -4.8441808335
  S        14.7265568451        1.3753353542       -7.3824430986
  C        13.8731266359       -1.3854812133       -7.2601075949
  H        13.7796151367       -2.4561718859       -7.0915331970
  H        14.8404618010       -1.2052534469       -7.6752368966
  C        12.7537212683       -1.1207660639       -8.2163843514
  H        13.0791992727       -0.3368316950       -8.9468140278
  H        11.8619921239       -0.8791471347       -7.7205361599
  H        12.5008040701       -2.0444534988       -8.7714564452
