352
 i =    97000, time =    48500.000, E =        99.0113398213
  H        12.0216958991        4.9184224102       31.7786256978
  C        10.9912868889        5.1071762097       32.1268351864
  H        10.5314367924        4.1724971415       31.9989438825
  C        10.2796272876        6.0815404548       31.1620174832
  C        11.0937552747        5.5482458875       33.6343785708
  C        10.9753798079        6.1943832827       29.8557192081
  H         9.2580878928        5.7471846681       30.9942119677
  H        10.1877634469        7.0872211563       31.5376561914
  H        11.6902128873        4.9036865589       34.2063790067
  H        11.5140733841        6.5323304972       33.6714384006
  H        10.0805216272        5.6630237461       34.0519545131
  C        10.2319974285        5.3770027888       28.7383606871
  H        12.0007380164        5.9922626102       30.0328370228
  H        10.9629078455        7.2817122808       29.5958383181
  C        10.7122733657        5.4729474521       27.3349725153
  H         9.9358500593        4.3919271681       29.1163896520
  H         9.1524223434        5.6928942326       28.7725299162
  C         9.6427654256        5.0162707436       26.3405991073
  H        11.5586906324        4.7976538751       27.4475694366
  H        11.1368749819        6.4357709450       27.1530321832
  C         8.5178262353        5.9954087799       26.1447256131
  H        10.2143550363        4.8667836525       25.4211466383
  H         9.2989636725        3.9575343088       26.5329655602
  C         7.3239406917        5.3728001904       25.4573553485
  H         8.1751846004        6.3935456899       27.0782693005
  H         9.0476870868        6.7885890034       25.6380125266
  C         6.8492126493        4.0065335353       26.1261026486
  C         7.6512269168        4.7025770286       24.2043981788
  C         6.1510700820        6.3851948137       25.2758951171
  C         7.0095860274        2.8930682652       25.2930487587
  C         6.2912564522        3.6495679628       27.3323261444
  C         7.4819449178        3.3543712344       24.0496289126
  C         8.1206616058        5.3516596824       23.0743438345
  H         6.4101360326        7.3558794539       24.8321338138
  H         5.8842768621        6.6554282870       26.2688043135
  C         4.9216455993        5.9451854742       24.3873547556
  S         6.7041746963        1.4068496747       25.9548168945
  C         6.2012153188        2.2779059648       27.4463204959
  H         6.2595810521        4.4186870809       28.1001483697
  C         7.7941613630        2.7837137548       22.8555990487
  H         8.2882158841        6.3806721693       23.2406513102
  C         8.5271049737        4.7457629910       21.9454654780
  H         5.0954775222        5.8706539593       23.2679504396
  H         4.7397905149        4.9199993196       24.6588012729
  C         3.6475818209        6.7751292042       24.7582028724
  C         5.8215059336        1.5460730391       28.7091276838
  C         8.4120305406        3.4136548737       21.8009314133
  H         7.7728583296        1.6807860054       22.8181364495
  C         9.0537033321        5.1054720145       20.7286345014
  H         2.8044844315        6.3234635296       24.2555460123
  H         3.5594848173        7.7197377772       24.2968629640
  C         3.2955867537        6.8208799464       26.2654821749
  C         5.9198496250        0.1851824860       29.0104665929
  C         5.2609486689        2.3831155273       29.7950537663
  C         8.8300629123        2.7520789308       20.4681450367
  C         9.2042922599        4.0335196347       19.8526906529
  S         9.5216522121        6.5677176058       20.0110054242
  H         2.3354319373        7.3461839745       26.2676017915
  H         3.9514023354        7.4295786305       26.8960994557
  C         3.0900761045        5.4099474712       26.9379792087
  N         6.4813037087       -0.6701818774       28.1952013329
  C         5.5273274940       -0.3353941956       30.2009770872
  C         4.8866260988        1.8495145798       31.0477423588
  H         5.1249775109        3.4288560101       29.6061341857
  C         7.7947497356        1.8858474998       19.7325923619
  C        10.1916523043        1.9647455363       20.6632137701
  C         9.6865936079        4.4199967429       18.5964876774
  C         9.8323538095        5.7638958934       18.4868806268
  H         2.8467299411        4.6342014772       26.1945709380
  H         4.0262384547        5.0558900396       27.2084205046
  C         2.1768665682        5.4300621780       28.1268818554
  S         6.4011197831       -2.1435707153       28.8413538726
  N         5.8312903050       -1.7069526442       30.3040463215
  C         4.9620670796        0.3912582277       31.3050809143
  H         4.6001493668        2.4453302177       31.8457571449
  H         7.6581737725        0.9634105753       20.2998899728
  H         8.1519888034        1.6425292303       18.7165907315
  C         6.4557272354        2.5498268834       19.6739566822
  H        10.3706791682        1.4887297226       19.7707539700
  H        10.0589132718        1.2231493813       21.3772493611
  C        11.3666663703        2.7680782559       21.2382225214
  H         9.8578984459        3.6595811307       17.8136521720
  C        10.1281268058        6.5963066626       17.2575541701
  H         1.9230772941        4.4110386349       28.4493095409
  H         1.3041801703        5.9763740333       27.8084018799
  C         2.9037170721        5.9002759858       29.3673799635
  C         4.7626015902       -0.2050005812       32.6148375082
  H         6.6011231938        3.5543272791       19.3351499674
  H         6.1146177321        2.5622973150       20.7161229743
  C         5.4497254617        1.8477732741       18.9176539910
  H        11.1207340768        3.1888826106       22.1884101149
  H        11.7120354616        3.5565997931       20.4968028121
  C        12.5049602148        1.8097643268       21.4989810310
  C        10.2084513501        8.0092657241       17.1035994590
  C        10.3701405439        5.8552765825       16.0431484604
  H         3.5340380142        5.0242549808       29.6014588431
  H         3.5968241075        6.7133331806       29.1543225839
  C         1.9590994535        6.2372308639       30.4539914992
  H         4.9665918923       -1.2643864975       32.6015039101
  C         4.7092158116        0.2216953190       33.9092746462
  H         5.0467441072        0.9983819068       19.4707912178
  H         5.8750012737        1.1619368760       18.1932716676
  C         4.3971420694        2.8631410515       18.3750364730
  H        12.1987972198        1.0015560615       22.1364663845
  H        12.7842117289        1.1822340280       20.6292376435
  C        13.6626536042        2.6115099744       22.0721177989
  N         9.7681511171        8.9291976932       18.0343237817
  C        10.4735119260        8.5653242821       15.8787203223
  C        10.6916010406        6.4412368426       14.8506744937
  H        10.1030697083        4.7639660932       15.9959869844
  H         2.1384622293        7.1995652318       30.9292322390
  H         0.9786050909        6.1545405670       30.1697550008
  H         2.0504493496        5.4974538727       31.1989095938
  S         4.5100847934        1.8086529715       34.4421351235
  C         4.5720213763       -0.8135515098       34.9651762837
  H         3.9586799220        3.5153431783       19.0871945535
  H         4.7771695236        3.6407426580       17.6977489953
  C         3.2753419737        2.2015007472       17.5513464512
  H        13.2838713844        3.0356088624       23.0303762652
  H        13.7963554984        3.4880452370       21.4907162062
  C        14.9304435297        1.8296814773       22.3654938860
  S         9.9547966388       10.4561954667       17.4605738069
  N        10.3846658249       10.0037925057       16.0039010185
  C        10.8965277279        7.9056833467       14.6915651033
  H        10.8699422715        5.7332674696       14.0344225042
  C         4.3527629473        1.1017394806       36.1006522691
  N         4.3580534529       -0.2385143316       36.1417633516
  O         4.5884812004       -2.0254433375       34.7653203737
  H         3.7184946214        1.7051750369       16.6478892097
  H         2.6377473439        2.8998929193       17.1079829708
  C         2.4131411228        1.2526575393       18.3338404662
  H        14.7289312454        1.4292179411       23.3795778471
  H        15.1582558571        1.0720735184       21.5983854998
  C        16.1147948468        2.7271808442       22.5450758438
  C        11.2014738509        8.7470916837       13.5601242527
  S         4.0246936461        2.0030040640       37.5886808160
  C         4.2499112277       -0.9281305914       37.4271007490
  H         2.7932135437        0.7989493727       19.1893370431
  H         1.4994993399        1.7891483806       18.5770205229
  C         1.9288493276       -0.0014317681       17.5458268266
  H        15.8634192459        3.4764708622       23.3030200680
  H        16.4119851709        3.1532479077       21.5697208712
  C        17.3857629504        1.9402548128       23.0149469103
  H        10.9433724093        9.8068488570       13.6171130882
  C        11.6634635414        8.3273924339       12.3368364791
  H         3.5077539567       -0.5980511332       38.2132481728
  H         3.9363602587       -1.9459836293       37.1891056575
  C         5.6503013919       -1.1998613197       38.0280610341
  H         2.6335928416       -0.1812444781       16.6626513700
  H         0.9130721003        0.2509227893       17.1515340948
  C         1.9607157815       -1.2373889701       18.4375193295
  H        17.6706392281        1.0762762251       22.4280440399
  H        18.2525816341        2.6175129745       22.9306790388
  C        17.2787989215        1.5611485867       24.4519134913
  S        12.2007863250        6.6842976660       11.9179324899
  C        11.8269359466        9.3089600858       11.2737114842
  H         6.3872044218       -1.4866816408       37.2599938554
  H         6.0587080113       -0.4395366037       38.7198332433
  H         5.5267671708       -2.1262147210       38.5763538686
  H         2.9479218700       -1.4720352201       18.9581584889
  H         1.5561352710       -2.2212216333       18.1054662048
  H         1.2973444318       -0.9919763728       19.2991709367
  H        18.3178649525        1.6128632447       24.8750201650
  H        16.9293680056        0.6244954686       24.8013555649
  H        16.6788317500        2.2944032243       24.9774003645
  C        12.5655850219        7.3945312265       10.3891367537
  N        12.3853644276        8.7313943835       10.2360648497
  O        11.5492341219       10.5187279522       11.3424471383
  S        13.0486470981        6.3669802456        9.0473060439
  C        12.7318958356        9.5052226152        9.0650339551
  H        13.0618756983       10.5103536280        9.3347591842
  H        13.5153485598        9.1467317122        8.4556924688
  C        11.4978521821        9.6722623318        8.2247543142
  H        10.7519969194       10.1766132818        8.7546750210
  H        11.8107835521       10.2528506033        7.3530277167
  H        11.3245407381        8.6241237967        7.9367272048
  H         2.4713507517        3.2377415710       12.3689964509
  C         3.0654514722        2.3067431190       12.6090640845
  H         2.4259624029        1.4840403773       12.1482665441
  C         4.3568160024        2.2333265635       11.7964302548
  C         3.1771893672        2.0656437975       14.1015006662
  C         4.0432071927        2.3229911468       10.2553774391
  H         4.8647591416        1.3021001447       12.0586855768
  H         4.9641583938        3.0405105126       12.1302283327
  H         3.9381141648        2.7918998670       14.3868566980
  H         3.4931901085        1.0182447088       14.2723423914
  H         2.2784580699        2.1730947856       14.6608112495
  C         4.6532273268        1.2635778245        9.3420742644
  H         3.0091060516        2.3736818223       10.0230116798
  H         4.2821986914        3.3132157982        9.8352900941
  C         5.2424121732        1.8373611048        8.0756163444
  H         3.8595316022        0.5266934338        9.1951480692
  H         5.4119548867        0.7561376865        9.9927853492
  C         6.4929665606        2.6913291842        8.1595054195
  H         4.4672681178        2.3496157506        7.4549783931
  H         5.6669171828        0.9642789555        7.5550615699
  C         7.7665818819        1.9374279738        8.7475460400
  H         6.7420543768        2.9881025862        7.1726929008
  H         6.2993714805        3.5756709435        8.6892414592
  C         8.9067650375        2.8454903664        9.0585865632
  H         8.0227200944        1.1620639419        8.0432250396
  H         7.4043775790        1.4157032636        9.6428731679
  C         8.5305821116        4.1671793887        9.6731606593
  C         9.4360366914        3.5048540201        7.7784867068
  C         9.9895858037        2.1966981149        9.9749211891
  C         8.8674297049        5.2258068823        8.8348408928
  C         8.1258077784        4.5719969902       10.9067997153
  C         9.3915650170        4.8320604396        7.6339797746
  C         9.9923751514        2.8490261729        6.6825105356
  H         9.3837139710        2.0877505908       10.8342818987
  H        10.4206024990        1.2171172112        9.7803129645
  C        11.1241502940        3.0991575385       10.4921554945
  S         8.6364361601        6.7261207489        9.4480478020
  C         8.1205555299        5.9443176579       10.9020175488
  H         7.9756302868        3.7983112388       11.6173845034
  C         9.8314401728        5.4718013890        6.5308382641
  H        10.0875758989        1.8575786976        6.8266990790
  C        10.3163079524        3.4393726159        5.4966606107
  H        10.8055640002        4.0502265319       10.6824745659
  H        11.8183702446        3.1900832337        9.7096873307
  C        11.9017070431        2.5942514077       11.7083259757
  C         7.7508483815        6.7779610485       12.1482583424
  C        10.3728968506        4.7743278562        5.3803916247
  H         9.7611812164        6.5673761449        6.5048057776
  C        10.8050171323        3.0012693722        4.3045594766
  H        12.8231178410        3.1796627756       11.8806477633
  H        12.2393335740        1.5023431237       11.5175901366
  C        11.1360894904        2.6703484643       13.0771898444
  C         7.9181796927        8.1946861914       12.3348089413
  C         7.1516148242        6.0511659911       13.2858884609
  C        10.8756709414        5.3847016866        4.1147780500
  C        11.1675463725        4.0470537958        3.4742707321
  S        11.1160785056        1.5022325814        3.6236467445
  H        11.0354722374        3.7294094604       13.3637328894
  H        10.1099944286        2.2903003147       12.9058911921
  C        11.7082253022        1.8395593578       14.2087704046
  N         8.3654804994        9.0964049335       11.4057827465
  C         7.6608207439        8.8103499308       13.5728781741
  C         6.8636522222        6.6488027426       14.5304960300
  H         6.9980673760        4.9515717488       13.2272444113
  C        12.1098839866        6.2729123075        4.3225044685
  C         9.7093813418        6.0231496145        3.3290819831
  C        11.7285058644        3.6101012372        2.2614095797
  C        11.6137504115        2.2874664088        2.1157394002
  H        12.5818612304        1.2554807075       13.8710346777
  H        10.9432536480        1.1102423101       14.6078141318
  C        12.0796606437        2.5825028213       15.4357438399
  S         8.3106059415       10.5792421013       12.0679438823
  N         7.9356365646       10.2059716807       13.5623344520
  C         7.2423670247        8.0990796290       14.7479993498
  H         6.4562016151        6.1116156944       15.3073952909
  H        11.9766880519        6.9993023416        5.0720045312
  H        12.3813521154        6.7967826978        3.3866810944
  C        13.2994102324        5.3712296743        4.8111259134
  H         9.4403719825        6.8895684396        3.9853282293
  H        10.0293129338        6.5089802135        2.3535796201
  C         8.3976002124        5.2082533204        3.2386380418
  H        11.9071794924        4.3803808869        1.4972080600
  C        11.8740627038        1.4736175899        0.9031526010
  H        12.5763810990        3.4771919725       15.1152573494
  H        11.1260773881        2.7542738349       15.9055005850
  C        13.0267707522        1.8419791505       16.3405263887
  C         6.9750025407        8.8320415616       15.9505598667
  H        13.1579447421        4.8290974199        5.7585347981
  H        13.6482103607        4.6832276343        4.0421536286
  C        14.4875068858        6.2356912666        5.1077343296
  H         8.0606706758        4.8095956649        4.1846165781
  H         8.5797521734        4.3977676726        2.5280481234
  C         7.3449804022        6.0951913304        2.6478432037
  C        11.9287535676        0.0266043855        0.7643327218
  C        12.1302744915        2.2151504717       -0.4207191558
  H        14.0326429620        1.8247344960       15.7994156894
  H        12.8110092228        0.7882723903       16.4900560794
  C        13.0784297032        2.6302441798       17.6446211018
  H         7.1088548226        9.9331633230       15.9136760713
  C         6.6578033618        8.3922460926       17.2510186126
  H        14.2039109241        7.2603936925        5.3153934170
  H        15.1444392869        6.2269339415        4.2092808453
  C        15.3088918898        5.6037136404        6.1366203270
  H         6.8352064050        6.8482430825        3.3809108521
  H         7.7703246195        6.7115151700        1.8721586158
  C         6.2131620483        5.2259635316        1.9303364286
  N        11.6420248844       -0.8720473047        1.8173720534
  C        12.1686205603       -0.6063579624       -0.4223273873
  C        12.4504032712        1.6022315388       -1.6471055771
  H        12.0982349593        3.2617877596       -0.3993957993
  H        12.1011435590        2.8955217753       17.9387616998
  H        13.6262717362        3.5746334815       17.3878567537
  H        13.4672884296        2.0523355929       18.4646681693
  S         6.4816311954        6.7674412311       17.6836429182
  C         6.5759896515        9.3095255284       18.4481966161
  H        14.8326165496        5.8131474802        7.1218322196
  H        15.3158524519        4.5512446894        6.0995635149
  C        16.7571220444        6.0301518019        6.2602667856
  H         6.1149911545        4.2893612458        2.4430290104
  H         6.5800903609        5.0039289361        0.8932981545
  C         4.7601182424        5.9045290783        1.7990848196
  S        11.4799286380       -2.3391963876        1.2044836846
  N        11.8058550212       -1.9499021655       -0.3379676607
  C        12.4873572274        0.0799643608       -1.6477088938
  H        12.6637575559        2.2005847158       -2.5491420039
  C         6.4414614762        7.2411664494       19.4058248131
  N         6.3938142671        8.5788484528       19.5676045766
  O         6.5911182712       10.5716000103       18.3822579821
  H        17.1870466271        5.7551670077        5.3323489682
  H        16.9020994785        7.0854034166        6.4027897283
  C        17.5140887215        5.4001639453        7.4151851436
  H         4.2036051812        5.0971951214        1.2849085017
  H         4.3358630275        6.0377942060        2.7343558932
  C         4.5858211376        7.1323880374        0.8848110277
  C        12.7606893087       -0.7413327593       -2.7536278412
  S         5.7660033531        6.1948318175       20.6696647656
  C         6.1713366996        9.2535398434       20.8254639069
  H        16.9912726115        5.5361986516        8.3727923788
  H        17.4125122501        4.3439662711        7.2196690504
  C        18.8972181378        6.0441189039        7.5905248030
  H         4.0206673401        6.8251490933        0.0673236464
  H         5.5773483710        7.4452290106        0.5842069020
  C         3.9279615199        8.3046077695        1.5489162508
  H        12.3654015998       -1.7659050724       -2.7509314757
  C        13.4036795044       -0.5529310020       -3.9465199846
  H         5.3407859052        8.7393137050       21.3679782222
  H         5.7995508969       10.2874306418       20.7835159549
  C         7.5480688123        9.3419615694       21.6084204721
  H        19.2922570535        5.7703188348        8.5620240913
  H        18.7174843667        7.1021664915        7.5799790835
  C        19.9304297005        5.6543783769        6.5148519334
  H         3.1049453466        8.7050998688        0.9484801774
  H         3.3833085987        7.8976733071        2.4023079165
  C         4.7819588713        9.4195841119        2.0415137513
  S        13.9793357932        0.9078859053       -4.4992758252
  C        13.3344230091       -1.5917216559       -4.9601744627
  H         7.9148659987       10.3565685575       21.6512050504
  H         8.2932355352        8.7106159064       21.1866725408
  H         7.2194043600        9.0384004255       22.5816410200
  H        19.4311654801        5.9589792893        5.6101116090
  H        20.8450739441        6.2717270931        6.6696400192
  H        20.2643388125        4.6107078402        6.4962159425
  H         4.2357564818       10.2931967731        1.9246544860
  H         5.0610610955        9.1440435287        3.0634989398
  H         5.7164642832        9.6074355888        1.4236958679
  C        14.2155313583        0.2081212200       -6.0824593678
  N        13.8704487293       -1.0942586255       -6.1504030122
  O        12.9366255426       -2.7280125241       -4.7736021363
  S        14.7367901531        1.0298588185       -7.4930153882
  C        14.0536464212       -1.8802616635       -7.3331539875
  H        14.4237559615       -2.8595682655       -7.0480809510
  H        14.8090300016       -1.5552510208       -8.0641630489
  C        12.6438948958       -2.0418749337       -7.9383128842
  H        11.8480356755       -1.6998734886       -7.2996005825
  H        12.4278336678       -3.0509516978       -8.2059745833
  H        12.4332367258       -1.5662441868       -8.9080171041
