352
 i =    31600, time =    15800.000, E =       100.0158170318
  H        10.0068425660        4.6740472018       32.1187552163
  C        10.1974078630        5.6362571385       32.5498765107
  H         9.2503266678        5.9867554979       32.9024016084
  C        10.6441324224        6.6740325539       31.4260241651
  C        11.1731828741        5.5955330036       33.7318012565
  C        11.0935354715        5.9936987917       30.1809903497
  H         9.9468787591        7.5419041110       31.0844115224
  H        11.5447447634        7.2506381738       31.7237044952
  H        10.9961608759        4.6919984342       34.4077149674
  H        12.1312609428        5.4610654703       33.3879378501
  H        11.0815708592        6.4074347364       34.3780520627
  C         9.9892987521        5.5595314183       29.2207231217
  H        11.5185295622        5.0690916753       30.4018576750
  H        11.8707061794        6.4810375812       29.6478690693
  C        10.3495189019        5.2981780399       27.7973451114
  H         9.5526806514        4.6256513617       29.6124424090
  H         9.1257511697        6.2558293457       29.2067280142
  C         9.1909387999        4.5902069076       26.9000670539
  H        11.2261054330        4.6251096404       27.8609129957
  H        10.6382019557        6.2418756623       27.3484002658
  C         8.3104320354        5.6633405663       26.3467625430
  H         9.4618633851        3.9026767321       26.0928061365
  H         8.7934754058        3.9021268981       27.6349027191
  C         7.0369518529        5.1504835181       25.6005663177
  H         7.9720028317        6.3003669326       27.1249171866
  H         8.9767825873        6.3130512671       25.7155180198
  C         6.6666396569        3.8171123031       26.1843465860
  C         7.4120070468        4.3666398176       24.2904582997
  C         5.8423830379        6.0240941568       25.4847097717
  C         6.8598479687        2.6720077736       25.4124386124
  C         6.0932310176        3.3542268593       27.3784814651
  C         7.3371152729        3.0404974578       24.1742616176
  C         7.9504579399        4.9724352700       23.1291302818
  H         6.0786405746        6.8288577647       24.7703836255
  H         5.6023746702        6.4287781178       26.5175977676
  C         4.5235495233        5.3543583586       25.0274929335
  S         6.4558776345        1.1831322479       26.1502586851
  C         6.0316780127        2.0224139296       27.5513508670
  H         5.8614122079        4.0836812194       28.1281012676
  C         7.7521989226        2.3949591923       23.0231400352
  H         8.0370659278        6.0561786768       23.2121895388
  C         8.3537208056        4.3364363253       21.9898747883
  H         4.7130275264        4.9038556140       24.0191481387
  H         4.1969086388        4.5212023375       25.6583140243
  C         3.4462347412        6.4479993596       24.8499564028
  C         5.6884187629        1.2884412293       28.8518912401
  C         8.3237004679        3.0234724937       21.8877154687
  H         7.4964787170        1.3955967047       22.9045352382
  C         8.8467790736        4.7025876176       20.7717866196
  H         2.9527218085        6.1156506734       23.9680142945
  H         3.8526827601        7.5038570653       24.6744205070
  C         2.4287565924        6.5259338231       26.0423666754
  C         5.6603269103       -0.0633175920       29.1097849804
  C         5.2914929014        2.2101640795       30.0005892510
  C         8.7505946605        2.3195224996       20.7212104729
  C         8.9718835420        3.5900374319       19.9796130028
  S         9.2415475203        6.1806989473       20.1168389064
  H         1.7515216069        7.3680036730       25.9262184148
  H         3.0205025800        6.8395661323       26.8971838022
  C         1.7009975816        5.1836935472       26.4124002886
  N         6.0438850010       -1.0527488092       28.2500274808
  C         5.3436685914       -0.5680521666       30.3946810276
  C         5.1176159263        1.7002243329       31.2646334179
  H         5.2702363222        3.2589210574       29.9297578530
  C         7.6012744985        1.5120720227       19.9528596198
  C        10.0345269148        1.4935736220       20.8449619715
  C         9.3600007528        4.0094416905       18.6721996500
  C         9.5185695445        5.3776785126       18.6424449384
  H         0.8580450525        4.9582556989       25.7153577613
  H         2.4036246625        4.3664513219       26.5125516274
  C         0.9708654971        5.3382163019       27.7522248667
  S         5.5485774351       -2.4329984938       28.9207171487
  N         5.4345402394       -1.9186407781       30.4529751632
  C         5.0504583976        0.2354051426       31.5387837714
  H         4.8491588799        2.4706160367       31.9768226759
  H         7.2731341226        0.6374181974       20.5484574273
  H         7.9553776971        1.1263136781       19.0033156918
  C         6.2841759387        2.3504670766       19.7423554774
  H        10.1539009898        0.9301296777       19.9492939507
  H         9.9412003667        0.7426494770       21.5945723713
  C        11.3781669485        2.2628107722       21.2018371132
  H         9.4450148520        3.2577857139       17.9481793097
  C         9.8221789691        6.1404239651       17.3799891425
  H         0.4228730357        4.4114169017       27.8924541756
  H         0.2880551748        6.1622787801       27.6820153850
  C         2.0006976468        5.4551889635       28.9146692817
  C         4.7866562017       -0.4452768426       32.7578423141
  H         6.6513413522        3.0639873892       19.0142867036
  H         6.0823406687        2.9000654724       20.6117637339
  C         5.0362880007        1.5971816731       19.2432131000
  H        11.2185316082        2.8683421070       22.0757676748
  H        11.5936076154        2.9774527620       20.4480723047
  C        12.6404821824        1.3885631495       21.4593732572
  C        10.0136673857        7.5254426445       17.2850531432
  C        10.0128416894        5.3969792002       16.0860227329
  H         2.6333824989        4.4906725307       28.8955003866
  H         2.7882447176        6.1857898878       28.7411494505
  C         1.4320834566        5.5583910774       30.3320465305
  H         5.1367766456       -1.4435613702       32.7709669098
  C         4.5462548281        0.0206117969       34.0250454065
  H         4.5370699889        1.0721881364       20.0075740410
  H         5.2793448159        0.7131048969       18.6900505068
  C         4.0514194235        2.4713527222       18.4798682292
  H        12.3622170004        0.7533435512       22.3095469972
  H        12.7832766289        0.7209356127       20.6088358635
  C        13.8815439899        2.2610815530       21.8436860020
  N         9.7931897280        8.4115419929       18.3316482896
  C        10.3291307316        8.1963046069       16.0735508632
  C        10.4813083496        6.0995963822       14.9278287080
  H         9.9344148652        4.3533498958       16.0921903289
  H         0.7204620557        4.7762988869       30.6102929137
  H         2.2045538568        5.6920149363       31.0743148364
  H         0.7459361716        6.3426638665       30.2149103965
  S         4.2446202773        1.6661697248       34.4207850702
  C         4.4778009081       -0.9839074686       35.1434511095
  H         3.8748859682        3.3551130627       19.0826042626
  H         4.5667796825        2.9938428587       17.6641316621
  C         2.6980835418        1.9306303986       18.0627238447
  H        13.7572371180        3.1601600236       21.2654151547
  H        14.8793287312        1.8170409981       21.5319803820
  C        13.8859943020        2.5991208057       23.3870467484
  S        10.1304401677        9.9676163411       17.7847410556
  N        10.4530553782        9.5746509028       16.2323754435
  C        10.6624969497        7.5880705476       14.8271283282
  H        10.4280589743        5.6645220959       13.9564890744
  C         3.9869350032        1.0533521950       36.0842065565
  N         4.0686574247       -0.2852192149       36.2585650565
  O         4.5284144971       -2.1764061400       34.9881172494
  H         2.0845219977        2.7182882199       17.5782212901
  H         2.0665103747        1.6005019682       18.9319437678
  C         2.8270447851        0.6704827346       17.2477748001
  H        12.9482352081        3.1842249979       23.5513708161
  H        13.8558815897        1.7181135989       24.0330812272
  C        15.0781498156        3.4320336714       23.7124246855
  C        10.8874091143        8.4099474216       13.6868784467
  S         3.7044999002        1.9760516591       37.5725300037
  C         3.8504941241       -1.0205983466       37.5046454562
  H         2.3122916409        0.7269900373       16.2861371072
  H         3.8625502367        0.5051278849       16.9040412703
  C         2.2790986110       -0.6323614038       17.8529914812
  H        14.8882938009        3.8826419289       24.7034983222
  H        15.1912318677        4.1534584675       22.8343756587
  C        16.2574599267        2.4766450356       23.8422375707
  H        10.6061411064        9.4526375385       13.7538709440
  C        11.5222318562        8.0738394895       12.4986289530
  H         3.0949652588       -0.6406282891       38.1362915227
  H         3.4716484298       -2.0309269356       37.3325706076
  C         5.1535637901       -1.0761950241       38.3444369979
  H         1.2897567549       -0.4075973161       18.3788845535
  H         2.9857692984       -0.9115562902       18.5768229008
  C         2.2011630749       -1.7750844649       16.7522220146
  H        16.6798467749        2.6707444700       24.8111770320
  H        15.9206126048        1.4597583936       23.7785678933
  C        17.3174345257        2.7052815294       22.7266214965
  S        12.1660564968        6.5491150308       12.0646904662
  C        11.7380477537        9.1727819613       11.5905022833
  H         5.0711443792       -0.4332636569       39.2362144865
  H         5.4537897967       -2.0870149288       38.6830217313
  H         5.8967747997       -0.5832604762       37.7911746157
  H         1.4470607696       -1.5194833035       15.9930954968
  H         1.7353568275       -2.6453829432       17.2137709394
  H         3.1092592456       -2.1141261242       16.2960316233
  H        18.1966849132        2.0323004531       22.7912557496
  H        17.7611786244        3.6810578104       22.6965166129
  H        17.0587995445        2.4791514513       21.6802855062
  C        12.5446514605        7.3610835919       10.5406537134
  N        12.2820310587        8.6890708430       10.4775246747
  O        11.2572505514       10.3338206118       11.7077097673
  S        13.4421138663        6.6531554149        9.2140964561
  C        12.3505789860        9.4724609899        9.2876939557
  H        12.2725228643       10.5292235369        9.5286395366
  H        13.3948235604        9.3059661360        8.9202082232
  C        11.3530760606        9.0774479460        8.1960011256
  H        11.2396240587        9.8453525676        7.4767153155
  H        11.7128334065        8.1992083634        7.5645323582
  H        10.4090901860        8.8582373486        8.5778612206
  H         3.4182106629        1.0170419396       13.7463124320
  C         4.0909412253        1.8396503855       13.4590427263
  H         4.9142230969        1.2558262528       13.0869646501
  C         3.4043249069        2.5640202405       12.2383476149
  C         4.5426384866        2.8150304758       14.6176332322
  C         4.4711311891        2.9983870441       11.2087119058
  H         2.7906681570        3.4303719352       12.5181279020
  H         2.5513553564        1.9907998731       11.8581632356
  H         3.7966943654        3.3859023858       15.0460178085
  H         5.1211572958        3.5708900895       14.2730099786
  H         4.9133005883        2.2255290311       15.4280052144
  C         4.8607523941        1.7836457069       10.4424672779
  H         4.2518839035        3.8735688204       10.5928383472
  H         5.3437958346        3.3739091228       11.6462148210
  C         5.4202567107        1.9518140497        9.0382548488
  H         3.8914881064        1.2989025004       10.4245856194
  H         5.5190085804        1.1743607847       10.9931133981
  C         6.7826002574        2.7000450890        8.9237975295
  H         4.6981712702        2.5928455482        8.5608956151
  H         5.3720214509        0.9779150797        8.5724109912
  C         8.0532201033        1.9086325744        9.3954221689
  H         6.9028949219        2.9928760295        7.8690745177
  H         6.7183604006        3.5738009858        9.5109039801
  C         9.3055866947        2.7156763506        9.4228991486
  H         8.3341520208        1.1404583680        8.6475058085
  H         7.9307778335        1.4350778812       10.3749731227
  C         8.9880615432        4.0566516762       10.0762000051
  C         9.6264861121        3.3710333009        8.1340607287
  C        10.4353774089        2.0097860821       10.2496659383
  C         9.1303080256        5.1286053059        9.2139779420
  C         8.7276881270        4.4823118342       11.4025019758
  C         9.5440349696        4.7064617170        7.9749030685
  C         9.9779149555        2.8139888897        6.9420812591
  H        10.0356771041        1.6735449230       11.2391092660
  H        10.7825586100        1.2071526232        9.6945208779
  C        11.5499821326        2.9998284872       10.5486504709
  S         8.7907234797        6.7266172612        9.9142988889
  C         8.4936053074        5.8462840946       11.4324701216
  H         8.6966414861        3.7507935478       12.1602589095
  C         9.8701861342        5.3094435398        6.8170449574
  H         9.9378928339        1.6380978182        6.8862241076
  C        10.3169643719        3.3797611696        5.7514227748
  H        11.3285880482        3.9736939075       11.1276465224
  H        12.0503984836        3.3323254653        9.6565019588
  C        12.5423631628        2.4243156255       11.5410482900
  C         7.9991430566        6.6281478225       12.6057510783
  C        10.2221857508        4.7011587898        5.5966490383
  H         9.9053280310        6.3778003164        6.7110949872
  C        10.6722613949        2.9766972339        4.5042287879
  H        13.5957684286        2.5854496815       11.1884324790
  H        12.5664490547        1.3947402687       11.4600868770
  C        12.2993792753        2.7843669543       13.0370325435
  C         7.9036897588        8.0466534292       12.8437174423
  C         7.3331078090        5.8237324599       13.6793074693
  C        10.5757188611        5.4050199517        4.3314837991
  C        10.8158022752        4.0439584658        3.6479574321
  S        11.0550819159        1.4980925786        3.8290484778
  H        12.5265833032        3.7828234144       13.3050066161
  H        11.2429412434        2.7756832203       13.1811688714
  C        13.2008720195        1.8561912795       13.8196521327
  N         8.0315133691        9.0514466495       11.8785142007
  C         7.6064989999        8.5058121865       14.1368789747
  C         6.9597203863        6.2865033098       14.8911636648
  H         7.0542894541        4.8257055001       13.4906975807
  C        11.8695253564        6.2284556324        4.5816948792
  C         9.4883555246        6.1836283316        3.5580850482
  C        11.2938936115        3.6492162793        2.3761155344
  C        11.4112307185        2.2992842485        2.3069652312
  H        13.9652518002        2.4609705486       14.3957434723
  H        13.6937883816        1.1087022304       13.1736421453
  C        12.2229599945        1.0689622426       14.7019360212
  S         8.0221778416       10.4133129633       12.6494106154
  N         7.7142709309        9.8778750151       14.1549448833
  C         7.1335562954        7.7132068605       15.2125564078
  H         6.5268922977        5.5523833953       15.5457184528
  H        11.5919564086        7.1234111528        5.1932423566
  H        12.2415313317        6.5649562231        3.6124065551
  C        13.0212982087        5.3970127296        5.2452689131
  H         9.1048443076        6.9595890356        4.1918598938
  H         9.9394269969        6.5972311652        2.6748574126
  C         8.2650617932        5.4159480921        3.0964643597
  H        11.4416284899        4.4798472296        1.6495944424
  C        11.7313624440        1.5120853387        1.0854475896
  H        11.3682487375        0.7080548243       14.1235462067
  H        12.7056331415        0.1521756849       14.9555627773
  C        11.7423951669        1.8626815708       15.9136715067
  C         6.8764201475        8.3820071298       16.4690551791
  H        12.8487041885        5.0006550709        6.2786636631
  H        13.2570790418        4.5501750325        4.6845444253
  C        14.2993503155        6.2177907811        5.3414382613
  H         7.8390495584        4.8847438748        3.8979170133
  H         8.7115906721        4.5366471033        2.5396200909
  C         7.1921961871        6.0073790769        2.2187355678
  C        11.7746926607        0.0729065639        1.0083789255
  C        11.9518537139        2.2525365991       -0.1418202117
  H        10.9470564325        1.2284570413       16.2975082110
  H        11.0387100977        2.6735515060       15.7138507732
  C        12.7891036103        2.0738471415       16.9678660838
  H         7.0875260134        9.4414292255       16.5813674911
  C         6.5318425848        7.8074048627       17.6926631257
  H        14.2025363746        7.1452173167        5.9018849312
  H        14.5705039202        6.5679284966        4.3385255467
  C        15.4775553127        5.4146076631        5.8652455504
  H         7.6098011423        6.8118622898        1.6942502297
  H         6.8840309761        5.2012692313        1.5329519076
  C         5.9394826602        6.4709328894        2.9693873238
  N        11.6713796925       -0.8711575912        2.0588193754
  C        12.0604134825       -0.5179546502       -0.2422731284
  C        12.2217382350        1.6666484219       -1.3306158710
  H        11.8412890631        3.3303281982       -0.2262870871
  H        12.5569967764        2.5060874025       17.8615832322
  H        13.6857357923        2.6822301846       16.5319568109
  H        13.1332318658        0.9893980446       17.1926262420
  S         6.2843418463        6.1198944795       17.9856859041
  C         6.4089543071        8.8129507349       18.8474828285
  H        15.1772148537        4.8235294608        6.6840861298
  H        15.9442039022        4.8301585294        5.0432605693
  C        16.6547360991        6.2262019642        6.5017952838
  H         6.3310005316        7.2810948869        3.5895802864
  H         5.6600478221        5.5881546010        3.6177761094
  C         4.8165448623        6.9798588796        1.9563456265
  S        11.6977946814       -2.3886296397        1.4042868458
  N        12.0815401064       -1.9053745710       -0.1321866958
  C        12.3092093688        0.1942941482       -1.4347362638
  H        12.3782446802        2.2866215880       -2.2841255624
  C         5.9696565823        6.7293631623       19.6488703450
  N         5.9549843212        8.0632723008       19.8715331459
  O         6.5010328088       10.0353283558       18.8137510937
  H        17.2285350501        6.6881555308        5.7186021875
  H        16.2964635275        7.0711338301        7.0918589086
  C        17.6290496218        5.3605969888        7.2927707776
  H         5.3024638522        7.6340242811        1.3111242549
  H         4.4342315991        6.2425487287        1.2972004871
  C         3.6593825323        7.8239989484        2.5890690920
  C        12.5766839615       -0.4868966052       -2.6800109037
  S         5.2549679616        5.7681177072       20.9024720162
  C         5.7536605324        8.6735577889       21.1734757586
  H        17.4039777980        5.6390754763        8.3141314514
  H        17.5044352245        4.2515657743        7.1958878116
  C        19.0412515999        5.9480443921        7.0253325308
  H         3.5847636502        7.7173946915        3.6312607648
  H         2.7145550290        7.4820849665        2.1991081792
  C         3.7907507604        9.2768580630        2.1896636032
  H        12.4004910963       -1.5662716938       -2.8122585278
  C        13.2723569186       -0.0366489406       -3.7791434148
  H         4.9525106707        8.2827224176       21.7776016547
  H         5.5449376541        9.7258231597       21.1039647809
  C         6.9958615678        8.5968126440       21.9750099580
  H        19.6767150527        5.7468479100        7.8687258572
  H        18.9231402815        6.9980421914        6.9214178351
  C        19.7897524813        5.3021040255        5.8922370618
  H         3.0393905283        9.8024484018        2.6333547977
  H         4.8244680521        9.6475183145        2.4241151874
  C         3.6438082505        9.5489260263        0.7006530853
  S        14.0232801691        1.4806763821       -4.0484152888
  C        13.2291139293       -0.9909685505       -4.9208974346
  H         6.7734244341        8.2261674566       22.9625541228
  H         7.5068442535        9.5222229779       22.0867039795
  H         7.6712930310        7.9008364601       21.4522210133
  H        19.8006253066        4.2686461797        5.9483829482
  H        19.4330480822        5.7616931882        4.9986666812
  H        20.8942184214        5.6056721877        5.9177115239
  H         3.4438081007       10.5824685398        0.5717372379
  H         4.5675951334        9.3150563514        0.1432888789
  H         2.9162034979        8.8727639212        0.2018908193
  C        14.4564318502        0.7601994743       -5.5982526349
  N        13.9725526226       -0.5071804433       -5.8492781657
  O        12.6245977535       -2.0344497791       -4.9782192085
  S        15.2108001865        1.5780331742       -6.9396676784
  C        14.2800767194       -1.2525792392       -7.0921821896
  H        14.3821050873       -2.2647327835       -6.9041666622
  H        15.3679749043       -1.1228912069       -7.3689595849
  C        13.3365084671       -0.9891091697       -8.2701077218
  H        12.4224483086       -0.4732774681       -7.8904149529
  H        12.9208178569       -1.8997745275       -8.7316974989
  H        13.9433026124       -0.3726256249       -8.9113223550
