352
 i =    56000, time =    28000.000, E =       100.0570334844
  H        10.6434632345        3.8975258900       31.5846930065
  C        10.5012444049        4.8241366338       32.0667966312
  H         9.4830996430        5.1770604042       31.8265910037
  C        11.4749854210        5.8000996443       31.4071887582
  C        10.7826684981        4.5696611092       33.4841414847
  C        11.7593049560        5.5034783018       30.0085920105
  H        11.1858887903        6.8081518927       31.4345806784
  H        12.3906211430        5.7246541729       31.9389430382
  H        10.5204866082        5.4746054935       34.0601890848
  H        10.2418662336        3.7398605097       33.9679218281
  H        11.7934624089        4.2524952943       33.5576181661
  C        10.5656241956        5.6265403961       29.0809550546
  H        12.1389427723        4.5368202086       29.7858630671
  H        12.5837652700        6.1434022198       29.6177975033
  C        10.8140929601        5.4854093653       27.5978325858
  H         9.9721450374        4.7028790590       29.2332373565
  H         9.9497173382        6.5320296088       29.4038757424
  C         9.7665254948        4.6817581241       26.8139633599
  H        11.7818903225        4.9843868990       27.4875818851
  H        10.8727740710        6.4515101266       27.2058453079
  C         8.4670092379        5.4561500856       26.4945035574
  H        10.2575255768        4.2986184102       25.9503684168
  H         9.4202136994        3.8727134443       27.4217252977
  C         7.4089022686        4.7294324293       25.6086093079
  H         8.0131708205        5.6960419995       27.3725959330
  H         8.7735234089        6.3971045136       26.0885904536
  C         6.9500487323        3.3709584249       26.2152759773
  C         7.8951799069        4.0558745758       24.3583226431
  C         6.1499172184        5.5487153228       25.4079466791
  C         7.2411118361        2.2998322279       25.4946021892
  C         6.3183649159        2.9868949393       27.4022915970
  C         7.8105092784        2.6606240149       24.2860540131
  C         8.2576496166        4.7191381944       23.1845918779
  H         6.3817179797        6.4202436235       24.8439401820
  H         5.8863632247        5.7441309504       26.3344633662
  C         4.9562365454        4.7661431402       24.7231897824
  S         6.7523503526        0.7632491596       26.1762632090
  C         6.2108241345        1.6309763242       27.5155778891
  H         6.0951142150        3.7912642939       28.0944331968
  C         8.1058095138        2.0318798998       23.1438014523
  H         8.2914065834        5.7874509560       23.2233187578
  C         8.4729335082        4.0782466700       22.0356281311
  H         5.2688330049        4.4058516627       23.7719256972
  H         4.7506160120        3.7619371483       25.1431746716
  C         3.5617022965        5.5933934989       24.5804869425
  C         5.7760086334        0.9304808982       28.8110657693
  C         8.5811715302        2.7203634777       21.9819110228
  H         8.0678760656        0.9652025272       23.0922597344
  C         8.8944519409        4.4748696880       20.8191494342
  H         2.9487797582        5.0598392825       23.8915197357
  H         3.8615901421        6.4193547624       23.9732194240
  C         2.8488786180        5.8554991922       25.8274269555
  C         5.8762750247       -0.4459910573       29.1630157180
  C         5.2528848843        1.7837565892       29.8787106637
  C         8.8080793638        2.0792649012       20.6327863312
  C         9.0730233130        3.4103289899       19.9388534898
  S         9.1246156634        6.0529016536       20.1020169837
  H         1.7904301206        6.2416777987       25.5653053725
  H         3.3833008785        6.5926009434       26.4065056186
  C         2.7529844408        4.5916337241       26.6823821809
  N         6.3653947528       -1.3764354508       28.2499403528
  C         5.4094907981       -1.0333792628       30.3376544857
  C         4.7590760195        1.2009231159       31.0690595135
  H         5.1298259711        2.8218418985       29.6108694848
  C         7.5686136509        1.4010971780       19.9390095993
  C        10.0444289427        1.1716232544       20.6370150347
  C         9.6205408275        3.8146960544       18.7032617982
  C         9.6191096601        5.2086247961       18.6287550546
  H         2.3671853643        3.8205227345       26.0113142856
  H         3.7203689500        4.2758267202       27.0126903132
  C         1.7400712341        4.7006604834       27.8461811532
  S         6.4424085921       -2.8078288116       29.0301330958
  N         5.6413886689       -2.4216868624       30.3882635583
  C         4.8727981785       -0.2415489086       31.3611287408
  H         4.2598569143        1.8120159111       31.7505632096
  H         7.0748294660        0.7595987792       20.6834850005
  H         7.7259284534        0.8040051525       19.0801317362
  C         6.4344735634        2.3565864790       19.4034449168
  H        10.2760850611        0.8010542969       19.6537491651
  H         9.9253500305        0.3262874494       21.3071232137
  C        11.2413727376        1.8505101651       21.2876467041
  H         9.8488376503        3.0424015331       17.9468343671
  C         9.9072332403        5.9776905830       17.3847058034
  H         1.1057373180        3.8375134300       27.9973751735
  H         1.0276394654        5.4532010980       27.7813043218
  C         2.4876284107        5.0299263391       29.2097477041
  C         4.6045969375       -0.9036403237       32.5679462981
  H         6.8091290638        2.9846776427       18.5920454580
  H         6.1410840116        3.0496447810       20.1938332482
  C         5.2910195560        1.4481891045       19.0078265222
  H        11.0139550064        1.9746333061       22.3484554919
  H        11.2803540427        2.9063818330       21.0510305702
  C        12.5578008581        1.2001318297       21.1788293979
  C         9.9889444668        7.4079436100       17.2273095035
  C        10.0801462946        5.1770582766       16.1392600868
  H         3.2567047023        4.2617776016       29.3484927671
  H         2.9793254176        6.0108378968       28.9565923610
  C         1.4801199245        5.1631997532       30.3785011049
  H         4.3541829307       -1.9591469679       32.4890577534
  C         4.4229574069       -0.4215512919       33.8319990603
  H         4.9100225072        0.9448010197       19.8453895356
  H         5.6988935973        0.7764539792       18.3003329631
  C         4.1525796542        2.0918783121       18.1854219739
  H        12.5820210815        0.5417713724       22.0121470519
  H        12.5656719465        0.6906439487       20.2484174836
  C        13.7382390835        2.1757810814       21.5307940073
  N         9.9381015468        8.4032467817       18.1981470851
  C        10.3171407826        8.0362787948       16.0270014344
  C        10.5987731088        5.8252563170       15.0000320415
  H         9.9674801424        4.1138143388       16.0800195521
  H         1.8967664208        5.7205333738       31.2792421484
  H         0.6472732884        5.7194984292       29.9512612601
  H         0.9463156751        4.2405144021       30.8275353409
  S         4.2724436834        1.2404776235       34.3491427425
  C         4.1950675515       -1.3891694693       34.8901579531
  H         4.0669140927        3.0684534030       18.5614269218
  H         4.5558056549        2.2027312521       17.1727706749
  C         2.8058248743        1.2973935114       18.1890084778
  H        13.5204612769        2.8558381843       22.3596386175
  H        13.9091830759        2.8177425669       20.6585005675
  C        14.9475949235        1.2819711507       21.9096799782
  S         9.9131128420        9.8708611834       17.4642079386
  N        10.2418951955        9.3880599293       15.9867587641
  C        10.7352628828        7.3075473351       14.8609064614
  H        10.8281121751        5.2257935236       14.2048624376
  C         4.1225841669        0.6052266844       36.0243472001
  N         4.0404974401       -0.7712067570       36.0316937998
  O         4.2481041513       -2.6489345485       34.7433250723
  H         2.0423109902        1.8037545719       17.6173556208
  H         2.5905134293        1.3175078250       19.2619332447
  C         2.9531823259       -0.1254371500       17.6841395955
  H        14.8244721444        0.8572365838       22.9446573906
  H        15.1879307844        0.3553312248       21.3189529010
  C        16.1819577403        2.2002541255       21.9270538661
  C        11.0014656213        8.0000072853       13.6921111265
  S         3.6798928483        1.5938384462       37.4826102929
  C         3.8939287850       -1.4654514168       37.3008403370
  H         3.1391971878       -0.0713293833       16.6490765974
  H         3.9627121300       -0.5697376397       17.9987545563
  C         1.7887476918       -1.0638293513       18.0457990054
  H        15.8560854643        3.2662912529       22.1003257456
  H        16.6208938223        2.0989266150       20.9139383634
  C        17.3033737424        1.9326349566       22.8495109466
  H        10.4756965003        8.9135513581       13.6898324325
  C        11.3531628777        7.6590652886       12.4415377566
  H         3.2360388193       -0.9185324679       37.9514376207
  H         3.4021768088       -2.3910164848       36.9578939911
  C         5.3884006681       -1.7051634468       37.8011206148
  H         0.9267082096       -0.3936973012       17.9263878623
  H         1.8932120051       -1.3756570305       19.1297737224
  C         1.7855308273       -2.3880582876       17.2320193136
  H        17.8233482137        1.0550079525       22.4875788771
  H        17.9302072801        2.7777745173       22.5758695014
  C        17.0837050838        1.9494644724       24.3352365086
  S        11.8222706944        6.1664778880       11.8375673901
  C        11.4492402548        8.7775048269       11.4128005429
  H         5.4000445942       -2.2625078035       38.7332729421
  H         6.0617494455       -2.2545969309       37.0839049448
  H         5.8653013209       -0.8035992787       37.8971170948
  H         0.8550536421       -2.8840013063       17.5178133035
  H         2.5557547853       -3.1385162011       17.3226909768
  H         1.6970169613       -2.1198441973       16.1611575095
  H        17.8635193271        2.0836393987       25.0776499357
  H        16.6661415688        0.9218546939       24.5350856381
  H        16.3137723119        2.6948963342       24.6681207278
  C        12.1364494262        7.0105827027       10.3067292808
  N        11.9758207160        8.3581829182       10.2420374312
  O        11.2011142149        9.9631992361       11.7829097615
  S        12.5374977787        6.1668139817        8.8093030728
  C        12.0553856672        9.0638627283        8.9709213733
  H        12.2203706595       10.1244968565        9.0724100818
  H        12.8768937522        8.7213724485        8.3524035209
  C        10.7030648744        8.9965882899        8.2158328605
  H        10.7674694232        8.0467998807        7.6649556863
  H        10.0085689021        8.9294353482        9.0864388870
  H        10.5673222142        9.8724637553        7.6328118020
  H         4.1735816439        0.6096117736       12.0950761406
  C         3.5079165521        1.5523972871       12.2093357380
  H         4.2584629431        2.3558536411       12.1452744570
  C         2.4872604217        1.7436055999       11.0295523561
  C         2.9373220255        1.6376166301       13.6287626962
  C         3.2481869822        1.9259928278        9.7276379758
  H         1.8264972857        2.4944508420       11.1318250520
  H         1.9542791200        0.8017631658       10.8502791239
  H         2.0732142610        2.3007408729       13.7852393114
  H         3.7232179998        1.9524105289       14.2873321884
  H         2.6842610520        0.6029969814       14.0403653093
  C         4.2712611626        0.8924806236        9.3454952836
  H         2.4470935557        2.0107170079        8.9562259587
  H         3.7563651967        2.8785626367        9.7078451050
  C         5.0318050191        1.3058158928        8.0662399407
  H         3.6881749273        0.0457545538        9.0279596171
  H         4.9609523671        0.6228280292       10.1649135548
  C         6.3347106162        2.0992381237        8.2187381433
  H         4.4823527563        1.8668963537        7.3472916357
  H         5.3545420804        0.4566918721        7.4499384503
  C         7.5400851176        1.3496332117        8.9173800528
  H         6.6201178311        2.4199248683        7.2263955153
  H         6.1554099447        2.9301015634        8.8599110927
  C         8.7640262604        2.3591130463        9.0716150416
  H         7.8464876363        0.4357154687        8.2951152639
  H         7.3623983325        0.9303600383        9.8687900096
  C         8.4167240525        3.7414027683        9.7458418749
  C         9.1458350790        3.1052190116        7.7942093739
  C        10.0314996993        1.6926724316        9.7326839129
  C         8.6896644666        4.8514360534        8.9397818050
  C         8.0727047419        4.0640211709       11.0471971811
  C         9.0877855309        4.4955078081        7.6806827931
  C         9.6387813592        2.4467147257        6.6067505364
  H         9.6376268563        1.2017308548       10.7292929380
  H        10.4692192919        0.9480326084        9.1043015374
  C        11.1506681650        2.6612225552       10.0925847028
  S         8.3494336070        6.3562849014        9.7556863842
  C         7.9491086882        5.4504278073       11.2051493264
  H         8.0204240580        3.3721456163       11.8538286893
  C         9.5834051357        5.0845677596        6.5691690241
  H         9.7249451906        1.3991914780        6.5719925149
  C        10.0654796019        3.1157386783        5.4638521247
  H        10.7913301444        3.5553028599       10.4435025991
  H        11.8240731594        2.8868519261        9.2998129351
  C        12.1412175322        2.0680072939       11.1242177424
  C         7.6107877566        6.1346416040       12.5260893748
  C        10.0951746917        4.4783529301        5.4172520840
  H         9.4750641603        6.1356338712        6.4770993109
  C        10.5765660044        2.7378336435        4.2506266617
  H        12.9867689207        2.6920319598       11.0769292630
  H        12.5228756714        1.1811101690       10.7007630591
  C        11.5173309955        1.8935821556       12.5242565530
  C         7.6668482945        7.5260479102       12.7689824607
  C         7.0515678390        5.2797586801       13.6394705686
  C        10.5265064371        5.2049739843        4.2308505428
  C        10.7748395794        3.8526706964        3.4533546822
  S        10.9719033575        1.3011330965        3.4649479426
  H        10.6772730403        2.5884141312       12.5738796685
  H        11.1283519239        0.9604650219       12.6838040155
  C        12.5723090577        2.2278380129       13.5608107066
  N         7.9342759438        8.5505593548       11.8264017792
  C         7.4510375426        8.0347378565       14.0420583318
  C         6.8405936680        5.8146385258       14.8967188363
  H         7.0927367474        4.1810843226       13.5171457679
  C        11.8355080012        6.0709207325        4.3216573341
  C         9.4728933005        6.1054882718        3.5487093350
  C        11.1482770557        3.4804064229        2.1314836931
  C        11.2012824252        2.0811023482        1.9757029866
  H        12.8147006898        3.2500045012       13.4617122017
  H        13.4399796537        1.6366226482       13.3714199536
  C        12.0944002038        1.9657193299       14.9996767353
  S         7.9558692312        9.9692010780       12.5390823968
  N         7.5172168657        9.4550556768       14.0340644758
  C         7.1034323227        7.2844605259       15.1850363069
  H         6.4330163923        5.1444030108       15.6189197302
  H        11.5533593190        6.9711678489        4.8117991537
  H        12.0803415367        6.4227365115        3.2957169519
  C        13.0273298037        5.3382498755        5.0021848003
  H         9.3885094580        6.9012659333        4.2095667352
  H         9.7663982329        6.4841967342        2.5890764766
  C         8.1474176080        5.3632701564        3.2013400061
  H        11.2534734201        4.2651514395        1.3526797846
  C        11.6098870195        1.3089794151        0.7208641421
  H        11.3459615470        2.6579587128       15.2846532008
  H        11.5990069934        0.9944122953       15.0449937173
  C        13.2415309722        2.0289239495       15.9664177739
  C         6.8066948489        7.9790316016       16.3831869285
  H        12.7390201756        5.0410852613        6.0447528955
  H        13.2289171772        4.4103643814        4.4470450975
  C        14.3409676984        6.1159018760        5.0730124598
  H         7.5137938361        5.1765103299        4.0793095870
  H         8.3033084864        4.3665653857        2.7674135361
  C         7.3602352357        6.1051000081        2.0774011049
  C        11.7610610767       -0.0715921977        0.6323895030
  C        11.8351159922        2.1426782494       -0.4779856939
  H        13.9848142321        2.6743942571       15.4878109593
  H        13.7009919457        1.0112955871       16.0558412698
  C        12.8832782051        2.4303219266       17.4019543786
  H         6.9493979900        9.0129029588       16.2679979188
  C         6.4580050662        7.5575159096       17.6476469464
  H        14.2061100598        7.0069169922        5.7132549544
  H        14.6934861524        6.4816692441        4.1516167525
  C        15.5936216495        5.3036157991        5.5770774752
  H         7.8654075462        7.0359123292        2.0588623928
  H         7.5302471499        5.5602052011        1.1563095361
  C         5.8847564912        6.3631358310        2.5162114087
  N        11.2784898165       -1.0376565384        1.5662027163
  C        12.2644675997       -0.6399726250       -0.5520669575
  C        12.2907891359        1.5166437239       -1.6394761776
  H        11.4956668059        3.1441998627       -0.5297384843
  H        12.3901207866        3.3839053590       17.3219797033
  H        13.7039427000        2.5755867217       18.0739735463
  H        12.2250177793        1.7408311256       17.8345641860
  S         5.9500469258        5.9933861466       18.0759857574
  C         6.3648192013        8.5172426504       18.7317455747
  H        15.6276389083        4.3222882478        5.1368972474
  H        16.5253124686        5.8918586232        5.4045168340
  C        15.5056227382        5.1455818660        7.0499579418
  H         5.8853255728        6.7470466289        3.5833281254
  H         5.3587475177        5.4480130169        2.3970404985
  C         5.2420064368        7.4282514391        1.5784301072
  S        11.7299446643       -2.5133838580        1.0212671040
  N        12.2680704118       -2.0540396260       -0.4764693305
  C        12.6194685979        0.0734987667       -1.7196924831
  H        12.4615759500        2.1343524886       -2.4641315372
  C         5.8242997255        6.6229599644       19.7705250182
  N         5.8767106211        7.9494264823       19.8539449996
  O         6.6895432287        9.6679394532       18.5432237270
  H        15.4205339200        6.0296507850        7.5115010288
  H        14.6890981284        4.4997783249        7.2735442429
  C        16.7766845703        4.5487323769        7.6323993876
  H         6.1069289132        7.9021908844        1.1582006207
  H         4.7184954667        7.0740031325        0.7744152489
  C         4.2986486323        8.4046969642        2.3264208975
  C        12.8909248513       -0.6251012800       -2.9408324603
  S         5.4787304926        5.7388600172       21.1716614931
  C         5.7856389240        8.7525998521       21.0886326387
  H        16.6133497224        4.1627982472        8.6089044478
  H        17.0587099529        3.6378599191        7.1684916412
  C        17.9932004353        5.4782132899        7.7203748098
  H         4.8597211189        8.7119590031        3.2761459264
  H         3.3332419570        7.9811134507        2.5968277520
  C         4.0912884768        9.6555124783        1.5179121269
  H        12.5289280844       -1.6230076611       -2.9761207060
  C        13.3993824310       -0.1804907372       -4.1320436927
  H         5.2691430015        8.3349234140       21.8739176630
  H         5.2833735783        9.6922245168       20.8482969734
  C         7.2053019915        9.1980986018       21.5117801718
  H        18.5159795056        5.1179413515        8.5461587284
  H        17.5942194253        6.4821089692        8.0416797920
  C        18.9576294070        5.4915508151        6.5520124822
  H         3.4841328882       10.2936929138        2.1670156955
  H         5.0241158709       10.1230125225        1.3927925041
  C         3.3619092806        9.3808243379        0.2630394471
  S        14.0387517509        1.3438213125       -4.5147744748
  C        13.4115571213       -1.1671451604       -5.2419832096
  H         7.5899721531       10.1746711379       21.2412919908
  H         7.9701798645        8.5199138699       21.3224712025
  H         7.2003337689        9.2007834342       22.5772550682
  H        18.4965897346        5.2420754489        5.5608651587
  H        19.4611136202        6.3976481764        6.5040737491
  H        19.6948644632        4.7240031291        6.6847943524
  H         3.0579863987       10.3473475466       -0.1264537873
  H         4.0863279685        9.0765632731       -0.4504131598
  H         2.6040122630        8.5892526148        0.2893279838
  C        14.2107947258        0.6829587575       -6.2001157973
  N        13.8897543321       -0.6167638603       -6.3329291149
  O        12.9760175647       -2.2941161617       -5.0824201508
  S        14.7021270276        1.5654352482       -7.6243810524
  C        13.9491916923       -1.3527395126       -7.6494384873
  H        14.3355421292       -2.3801375709       -7.5412478877
  H        14.5845980185       -0.9413684211       -8.4367621320
  C        12.5609935935       -1.4668012232       -8.2794495468
  H        11.6718051057       -1.4431661942       -7.6878767615
  H        12.5739189061       -2.3521130547       -8.9612575391
  H        12.3300822995       -0.8007370794       -9.1558625277
