352
 i =    30800, time =    15400.000, E =       100.2979297022
  H        10.3480423471        4.4955233119       31.6388710092
  C        10.4063662795        5.5269921695       32.0460147223
  H         9.3746804285        5.9207470115       32.0533764981
  C        11.2126073665        6.4139891825       31.0681438786
  C        10.8028819264        5.5622015345       33.5302612233
  C        11.3762713235        5.5988883603       29.7479779511
  H        10.6681565252        7.3399317104       30.8142679627
  H        12.1350023324        6.5585989597       31.5291609757
  H         9.9138673182        5.3603234423       34.2201869836
  H        11.4582750836        4.7978580785       33.6984633045
  H        11.2047151832        6.5410246976       33.7782903319
  C        10.1180790194        5.4005055027       28.9030035447
  H        11.9143088540        4.6214412633       29.9143755131
  H        12.1111825742        6.1708122669       29.1142734756
  C        10.4949246459        5.4952310987       27.4741200700
  H         9.6859957424        4.4691156821       29.1549019397
  H         9.3888289891        6.1707375671       29.1934821652
  C         9.4263652783        4.8899761223       26.4874555990
  H        11.3812946066        4.8175736084       27.4321788739
  H        10.7081990896        6.5371623682       27.1512580430
  C         8.1377621824        5.8513197569       26.4054466719
  H         9.8744482518        4.6952020914       25.4693230059
  H         9.2428745899        3.9009328351       26.8585444313
  C         7.0034853141        5.2022393916       25.5762553640
  H         7.7893934227        6.0554059130       27.4145096179
  H         8.4942161524        6.7771440765       25.8799042793
  C         6.7638182281        3.8201041589       26.2600873795
  C         7.4105199303        4.4391524938       24.3246446645
  C         5.7399503877        6.0328460747       25.6079767216
  C         6.9823134709        2.7344953026       25.5099503821
  C         6.2773752479        3.4735161638       27.5525512816
  C         7.4330107278        3.1103069301       24.2647242172
  C         8.0203514438        5.0764122268       23.2642373080
  H         5.7308294037        7.0366442606       25.2225244165
  H         5.4432524121        6.0765653355       26.6502658496
  C         4.5627871663        5.3103641376       24.7936920985
  S         6.7756084183        1.2629300875       26.3238772178
  C         6.1877834962        2.1109468942       27.7051926094
  H         5.9841257073        4.2103810962       28.3210790446
  C         7.7263678236        2.4191945889       23.0825662822
  H         8.2431209522        6.1211297341       23.3909167579
  C         8.3751021736        4.4467905722       22.0952544583
  H         4.7590685316        5.1172376703       23.7351887118
  H         4.3963059841        4.3548240996       25.2141219414
  C         3.2048652877        6.0624266278       24.7228563954
  C         5.7574860338        1.4508677887       28.9824238548
  C         8.1936343446        3.0790574244       21.9236540867
  H         7.5955645196        1.3828369867       22.9815615585
  C         8.9083502733        4.8772876776       20.8559354302
  H         2.5519418757        5.6639679939       23.9629974701
  H         3.5391112256        7.1557052302       24.5974586415
  C         2.4227174392        6.2394136864       26.0204888694
  C         5.7042020952        0.0343169378       29.1571821248
  C         5.4716694541        2.2537550023       30.2320306402
  C         8.5591850406        2.5045570902       20.5735447078
  C         8.9007511920        3.8465450367       19.9549280280
  S         9.3599131960        6.3364141656       20.1287366217
  H         1.7694731572        7.0646608330       25.7806242498
  H         3.1448617671        6.6723897306       26.7420236405
  C         1.7555938659        4.9303495135       26.4835039002
  N         5.9714699036       -0.8758306965       28.1576937094
  C         5.4098130762       -0.5679265887       30.3703333389
  C         5.1678809528        1.6402092273       31.4334530029
  H         5.5971154936        3.3110983355       30.2115150849
  C         7.3713211746        1.7906083922       19.9229344804
  C         9.8401319401        1.6439962566       20.6189494383
  C         9.3700025701        4.1675457173       18.6426122665
  C         9.5820908740        5.5420203911       18.5948229476
  H         1.0183692554        4.5938618040       25.6780927502
  H         2.4697634971        4.1416883617       26.6486189552
  C         0.8740886031        5.0383806765       27.7611977498
  S         5.9219665821       -2.4177115554       28.6938725828
  N         5.4168387666       -1.9949029443       30.2571258911
  C         5.0210326496        0.1383856696       31.5078687458
  H         4.9529016794        2.2302033308       32.2909994419
  H         7.1503894998        0.8797445249       20.4935416657
  H         7.7047727507        1.5267637283       18.9061613450
  C         6.0145347168        2.3749323529       19.7582053964
  H        10.1252275438        1.5877635005       19.5756303437
  H         9.6541283713        0.5786065814       20.9300976168
  C        11.0624924060        2.3124212943       21.3399879292
  H         9.3523184387        3.4719772076       17.8594288622
  C         9.9707557739        6.2627269397       17.3575569675
  H         0.2111200365        4.1535641808       27.9196133161
  H         0.2012380001        5.8734420953       27.7059153353
  C         1.7726540403        5.1979520896       29.0363078995
  C         4.8078051848       -0.5633126011       32.7056612385
  H         6.0587521389        3.4834444265       19.7990217623
  H         5.4693556584        1.9479266605       20.5960924096
  C         5.3735855413        1.9706780318       18.4040878560
  H        10.8023038592        2.2589491916       22.3863549067
  H        11.1873169773        3.3084493539       21.0386147468
  C        12.3513819715        1.5299602087       21.1022101991
  C        10.0800668574        7.6993619021       17.2772017750
  C        10.0586686697        5.4085529979       16.1242659843
  H         2.4292590833        4.3386795876       29.1232475752
  H         2.4660932646        5.9717017770       29.0599505428
  C         0.8399267589        5.2913573167       30.2688065715
  H         4.7993727381       -1.6323014162       32.5837281672
  C         4.6180272481       -0.1868511657       34.0058321473
  H         5.6895473978        1.0140335765       18.1984473538
  H         5.7063526401        2.6714683592       17.6951525821
  C         3.8850058881        1.9880502333       18.4476382297
  H        12.2434581059        0.5298018995       21.5170257499
  H        12.4052914945        1.2817286456       20.0632792987
  C        13.6018063022        2.1484800340       21.5794238186
  N         9.8800771449        8.6259078290       18.2936053305
  C        10.4579732997        8.2348561181       16.0534059691
  C        10.3551065144        6.0459651247       14.9331874720
  H         9.9470536512        4.3148200313       16.0996749965
  H         0.2279634783        4.3772349156       30.3326362556
  H         1.3688571208        5.4885706545       31.1633671685
  H         0.1282150480        6.0079596662       30.0480879265
  S         4.4148943097        1.4267923403       34.7003444158
  C         4.5371449799       -1.3007628589       34.9773679210
  H         3.5959348250        2.6075708281       19.3100736323
  H         3.4972833602        2.4439329537       17.5397398690
  C         3.3068923881        0.5601604824       18.7651306610
  H        13.7652669177        3.0510683617       21.0413072990
  H        14.3826825910        1.4235371097       21.2675837629
  C        13.6132195621        2.4705185884       23.0559336544
  S        10.0617622865       10.1246168803       17.6023474523
  N        10.4295102847        9.5961914909       16.1176848717
  C        10.5889483812        7.4986390607       14.8362159121
  H        10.3140090756        5.4931503022       13.9728758756
  C         4.0547254274        0.5172222297       36.1777449998
  N         4.1102536492       -0.7930913292       36.1164630893
  O         4.8707182556       -2.4641207338       34.7085377784
  H         2.2868539170        0.7109347846       19.0480944160
  H         3.8862272406       -0.0125225746       19.4908891333
  C         3.2510478155       -0.2598432189       17.5604401757
  H        12.9389185217        3.2983081698       23.2910822923
  H        13.1009498864        1.7925500306       23.6891498549
  C        14.9846798338        2.8870308229       23.6084377559
  C        11.1022442760        8.2140377258       13.6350557684
  S         3.5332744533        1.3055288262       37.6701117777
  C         3.9097719638       -1.6461173139       37.3116222969
  H         2.7851672217        0.1747261183       16.6845862339
  H         4.1929178243       -0.4768441640       17.0759700081
  C         2.6772214972       -1.6438683493       17.9313368097
  H        14.7940852073        3.3450685424       24.5410243817
  H        15.2875760966        3.6602270695       22.8949093527
  C        16.0214552949        1.7356986316       23.7200737565
  H        11.0218719629        9.2485850542       13.7514109278
  C        11.5362821591        7.8068465423       12.4241849314
  H         3.1427265211       -1.2169542445       37.8338735960
  H         3.6879339547       -2.6053787103       36.9736374920
  C         5.1703179783       -1.6406034689       38.1778429750
  H         1.6105518647       -1.5314873407       18.1720441714
  H         3.1236375546       -2.1386743443       18.7328341073
  C         2.8569968872       -2.6253623116       16.7845469940
  H        16.5261842275        1.7384592212       24.7011955388
  H        15.5688135534        0.7409893319       23.6161431085
  C        17.0539031618        1.8699071158       22.6526441439
  S        11.8423521120        6.2711105609       11.8575578066
  C        11.7572127809        8.8756305244       11.3992915287
  H         5.0787310017       -0.8506495599       38.9811766613
  H         5.3427292874       -2.5899724864       38.7172228715
  H         6.0523479799       -1.4090696007       37.5939795191
  H         2.4499740382       -2.2196065029       15.8127013386
  H         2.3983598139       -3.6245992828       17.0547692314
  H         3.9145310801       -2.8791385943       16.6066243443
  H        17.6642555513        0.9475033270       22.5405589125
  H        17.6841418156        2.6892967956       22.8816358541
  H        16.5491198722        1.9717750383       21.6759373916
  C        12.1073056774        6.9941497546       10.2309695824
  N        12.0969601473        8.3229585666       10.2407197341
  O        11.4113240148       10.0792841052       11.5480625177
  S        12.6168953090        6.0896253521        8.7806800022
  C        12.3449802963        9.1847416510        9.0985813074
  H        12.7739191549       10.1396643145        9.2716591315
  H        13.1563614730        8.8020122227        8.4460495015
  C        11.1325047850        9.3058031697        8.2161666880
  H        10.9780373485       10.2622294422        7.7789430796
  H        11.1780103129        8.5336167105        7.4100041433
  H        10.2587743335        9.0785203487        8.8173778190
  H         3.4254529573        0.7037407877       13.1987972978
  C         3.6250381578        1.7257460741       12.8715166998
  H         4.6839557007        1.6167702492       12.5788404936
  C         2.7471072493        1.9918946854       11.6337294564
  C         3.5677912562        2.5819166932       14.1228776674
  C         3.5693134585        2.4033303834       10.3570375168
  H         1.9344913724        2.7425477504       11.8405911125
  H         2.2325448089        1.0270449044       11.3997066956
  H         2.6074627861        3.0808783690       14.2655075563
  H         4.1509827486        3.4702086153       14.0705789140
  H         3.8984208785        1.9279446764       14.9306784805
  C         4.3691439693        1.2724071857        9.7780282289
  H         2.8926748048        2.7274397171        9.5453902670
  H         4.2994431129        3.1810480059       10.5227251642
  C         5.1679991996        1.6003126898        8.5094686402
  H         3.7192809673        0.3364400144        9.7006868866
  H         5.1085967123        1.0297106398       10.5716823283
  C         6.5325593438        2.3774702087        8.7054777239
  H         4.6040946643        2.1283113614        7.7141283749
  H         5.2421800247        0.6849115625        7.9044095695
  C         7.7275668049        1.6274560658        9.1519189434
  H         6.8617336462        2.9601766167        7.8276556975
  H         6.3088963794        3.1193029896        9.4376863923
  C         9.0051889877        2.4919974549        9.4368639910
  H         7.8640280035        0.8292063835        8.3580733825
  H         7.3970601403        1.0890012126       10.0632167674
  C         8.6442151905        3.8552489396       10.1186001917
  C         9.4049534767        3.1680573583        8.1411195061
  C        10.2376765190        1.6946822322       10.0030457479
  C         8.8872980589        4.9204789371        9.2534785356
  C         8.1234619786        4.2918823148       11.3406242919
  C         9.3822841080        4.5282576314        8.0144058525
  C         9.7721079305        2.5113476918        7.0069607549
  H         9.9537677208        1.1239372791       10.9355500138
  H        10.5918560806        0.9392450957        9.3170881473
  C        11.4773702200        2.6228022464       10.3205182018
  S         8.4111349383        6.4751660694        9.8596247521
  C         7.9436907119        5.6642757880       11.3576990958
  H         7.8754217764        3.5550486626       12.0934214243
  C         9.7806092556        5.1687768643        6.8760565362
  H         9.6713625569        1.3898712044        7.0096528920
  C        10.3206329744        3.1405457055        5.9087740787
  H        11.1444985413        3.6041955714       10.7410307356
  H        11.9369280224        2.9812555453        9.4573546393
  C        12.5736794238        2.0723331677       11.1948561629
  C         7.5591190470        6.3799199609       12.6019754527
  C        10.2768501141        4.5089654081        5.7948841982
  H         9.8541460262        6.2502159657        6.9620846821
  C        10.7138145656        2.7835392847        4.6474424969
  H        13.6003647953        2.5052501963       11.0649343380
  H        12.7449208069        1.0817162086       10.9534801418
  C        12.1782459682        2.1059928294       12.6984049427
  C         7.6048640596        7.7735528047       12.8312678285
  C         7.0597613463        5.6146566822       13.7437569242
  C        10.8655163877        5.2018744288        4.6156507971
  C        11.1229747999        3.8791697673        3.9027397278
  S        10.9007190069        1.3190640458        3.7877723234
  H        11.8103953495        3.0630239098       12.7855591560
  H        11.3010003250        1.5363573569       12.7601413428
  C        13.2477747494        1.8670118819       13.7609861628
  N         7.9999456177        8.6619334101       11.8533033827
  C         7.2578732875        8.4136682694       13.9967958996
  C         6.7156132414        6.2502447636       14.9243721500
  H         6.9589035607        4.5541542632       13.7520473678
  C        12.1062912105        6.0384777572        4.8570688538
  C         9.7459310564        6.0659006057        3.9691353297
  C        11.5017162454        3.5563812133        2.6102141268
  C        11.3311865184        2.2310192785        2.3558219951
  H        13.4010910955        2.8869772696       14.2560382029
  H        14.1898335980        1.5396480174       13.2822759056
  C        12.9382182597        0.9683093071       15.0248178654
  S         8.0046386559       10.1983414979       12.4542137433
  N         7.4096590446        9.8390283063       13.9475334318
  C         6.8424706296        7.7097231205       15.1600337717
  H         6.3189790228        5.6576982339       15.7214944337
  H        11.9857739719        6.8794094245        5.5633886434
  H        12.4623558116        6.4445907429        3.8742590728
  C        13.2468733647        5.1323565561        5.3361922224
  H         9.4924675012        6.9351799656        4.5436714946
  H         9.9536480691        6.4000321798        2.9738381339
  C         8.3985176032        5.3730113104        3.5637991129
  H        11.8882449058        4.3667941223        1.9888834640
  C        11.5690892025        1.5784432039        1.0460488527
  H        12.3970583352       -0.0269219460       14.8426370642
  H        13.9189965590        0.7235418066       15.5064898066
  C        12.1388832940        1.6284545063       16.1991178497
  C         6.6811551006        8.4312495351       16.4067394546
  H        13.0460777662        4.6117873225        6.3063973569
  H        13.5924901862        4.4284932046        4.5918591596
  C        14.4164416497        6.0096032206        5.7058154707
  H         7.7912715919        5.2920862247        4.3692383527
  H         8.5948608028        4.3447611067        3.2319891282
  C         7.5622372000        6.1710414037        2.5398885293
  C        11.6692778848        0.1811459696        0.8733711837
  C        11.8307248675        2.3560455062       -0.2379756952
  H        11.5756481562        0.9593717465       16.8338488008
  H        11.3350900840        2.2025070334       15.7244746896
  C        13.0888109055        2.5214509056       17.1326181922
  H         6.6453488625        9.5388044894       16.2507071681
  C         6.6218424356        7.9635366712       17.7252932739
  H        14.0360473616        6.7178256616        6.4258776844
  H        14.7286700442        6.4750886503        4.7632642240
  C        15.5007982533        5.1353811882        6.3022059772
  H         8.1594114666        7.0089730069        2.1486456022
  H         7.3879544884        5.5060815316        1.6672501757
  C         6.2329889489        6.7674034665        3.1853426417
  N        11.6135007544       -0.7796448095        1.8986510681
  C        12.0390039311       -0.3837544170       -0.3677057929
  C        12.1783403883        1.8014334590       -1.4389786016
  H        11.7441095819        3.4304932444       -0.1332195527
  H        12.6956034247        3.3133008881       17.5952187575
  H        13.9138114045        2.8989140745       16.4589570551
  H        13.4946915959        1.8394803855       17.8863872678
  S         6.3622222700        6.3256230369       18.2202621558
  C         6.5503045173        8.9671982442       18.8507554303
  H        15.0832430892        4.8322084695        7.2469290290
  H        15.6881204328        4.2124630643        5.7439979911
  C        16.7593692380        5.9517536994        6.6160145176
  H         6.4508980027        7.3441718229        4.1182494349
  H         5.5460674861        5.9474160475        3.5220991259
  C         5.5433185822        7.5698797081        2.1246990981
  S        11.8476878173       -2.2551914586        1.2353008480
  N        12.1073291013       -1.7913861753       -0.3097682749
  C        12.2379900958        0.3246427037       -1.5529221967
  H        12.2107460188        2.5218188105       -2.2966944182
  C         5.8984651540        6.9494594569       19.8682106232
  N         6.0180119517        8.3256791786       19.9855380799
  O         6.5656672273       10.1535589140       18.6845947232
  H        17.3084213795        6.0976732268        5.7301570241
  H        16.5335592103        6.9572927999        6.9362761845
  C        17.6506605210        5.1971483226        7.5469037569
  H         6.2521150831        7.9945846735        1.4253542278
  H         5.0824470361        6.8891544993        1.3949634093
  C         4.6716044924        8.5683629039        2.8099486004
  C        12.4725344930       -0.4500674990       -2.7634020659
  S         5.4697677632        6.0337830869       21.3153419945
  C         5.6498386471        9.0144227084       21.1987857816
  H        17.0302889851        5.0963674622        8.4457055583
  H        17.7747897643        4.1613520081        7.2605769478
  C        18.9433692982        5.9571128579        7.9025894018
  H         5.0760197041        8.9631201298        3.7644249294
  H         3.8460581743        8.0323425553        3.2984973574
  C         4.2274696213        9.6870419822        1.8879345989
  H        12.2342455952       -1.4627300062       -2.6222888305
  C        13.1382410944       -0.1160755657       -3.9292030617
  H         4.6451597645        8.7594999878       21.6288831397
  H         5.3338471693       10.0608220294       21.0124392261
  C         6.6880653269        8.8722671579       22.2966254482
  H        19.3855844497        5.3938361611        8.7591582161
  H        18.6661472024        7.0142971138        8.1369219816
  C        19.9150846247        5.9554485129        6.7211329836
  H         3.4486081206       10.3426264788        2.2882772730
  H         5.1221523222       10.3984598299        1.6840904189
  C         3.6261293306        9.2638379977        0.5787308514
  S        13.7603145280        1.4525498883       -4.4474800357
  C        13.3870900390       -1.2192058578       -4.8800462724
  H         6.2185843709        8.3389142630       23.1187323280
  H         6.8460852184        9.8572153140       22.6571371931
  H         7.6141414537        8.4398850424       21.8496989155
  H        19.5810963517        6.6458675174        6.0325489964
  H        20.9337569063        6.3237389884        6.9698082508
  H        20.1820814708        4.9991753325        6.2185639724
  H         2.9918086018       10.0152179174        0.1565708287
  H         4.5092814201        9.0015247674       -0.0764422670
  H         3.0069440069        8.3726505633        0.6613494707
  C        14.2072240059        0.5864344738       -5.8970554978
  N        14.0056111061       -0.7218071729       -5.9613836686
  O        12.9596004911       -2.3438585054       -4.7932560808
  S        14.8063430772        1.5153013275       -7.3359287758
  C        14.0488321521       -1.4878013251       -7.1294972585
  H        14.1819761664       -2.5053724617       -6.9336886473
  H        14.9068060407       -1.1265502024       -7.7198573722
  C        12.8420031839       -1.3103759734       -8.0165070604
  H        12.5901979052       -2.2638229766       -8.4993820608
  H        13.0329580897       -0.5587590228       -8.7650293099
  H        11.9655190723       -1.0475112060       -7.4668645663
