352
 i =   102300, time =    51150.000, E =        99.9035337775
  H        10.6823907608        4.4196886405       32.0445234824
  C        11.2094330614        5.3109696502       32.3313282222
  H        10.5166363775        6.1429076670       32.5165543817
  C        12.2031764849        5.6319235494       31.2358603073
  C        11.9144245774        5.0528287792       33.6598044327
  C        11.6120816549        6.3734163522       30.0024717710
  H        12.9683908469        6.2609953930       31.7017295805
  H        12.7349091303        4.6779430052       30.8904877318
  H        11.5803548534        5.6756173207       34.5232438426
  H        11.8024534212        4.0223143434       33.8864289013
  H        13.0301643670        5.1118936431       33.6182653772
  C        10.7356231612        5.3682847067       29.1677467010
  H        12.4121332050        6.6967377255       29.3864707346
  H        10.9865035535        7.2358301537       30.4763853251
  C        11.0662881199        5.3891232187       27.7082189876
  H        11.0027687452        4.4048151265       29.4878109239
  H         9.6601337246        5.5738526376       29.2911439019
  C         9.8392858164        4.7942978635       27.0054923205
  H        11.9104984954        4.7342424088       27.5684925574
  H        11.2490113499        6.4123394778       27.2966601474
  C         8.8059844921        5.8296824453       26.5220302904
  H        10.2661396796        4.2066069731       26.1521090910
  H         9.3132852125        4.1028594014       27.6403635323
  C         7.6480759798        5.2665515475       25.6537365485
  H         8.2701778039        6.3720875146       27.3217129075
  H         9.3221981031        6.4926472219       25.8327595503
  C         7.2099231162        3.9410734134       26.3412856187
  C         8.0171875597        4.6179444573       24.3794207344
  C         6.4329119230        6.2714980173       25.6244439307
  C         7.5082056017        2.8646038555       25.5606384520
  C         6.6918345900        3.5812145903       27.5906801809
  C         7.9875472565        3.2263259029       24.3349217501
  C         8.3818302447        5.1799475430       23.1669552696
  H         6.7727902428        7.1610543408       25.1136477281
  H         6.0523980016        6.5246439962       26.6336099947
  C         5.2592306400        5.5677314030       24.8982053196
  S         7.2273920958        1.4221525483       26.4026511894
  C         6.5672384842        2.2293035860       27.6861342713
  H         6.4423869667        4.3780904936       28.2809489780
  C         8.2254866073        2.5398963266       23.1409950208
  H         8.6818623693        6.2227965359       23.2568685878
  C         8.5952437544        4.5613934704       21.9796882268
  H         5.6580770103        5.1713594926       23.9580570515
  H         4.8870860142        4.6763854369       25.3329026350
  C         4.0582757061        6.4657164748       24.6141905680
  C         6.0033601379        1.4362202693       28.7986065338
  C         8.4694610261        3.2060394077       21.9286539976
  H         8.3124572552        1.4795619671       23.2405468084
  C         9.1079482154        4.9205930807       20.7596670741
  H         3.6209914531        5.9700642443       23.7468056806
  H         4.3467860004        7.4328183160       24.1719553521
  C         3.2188836460        6.6916130258       25.9012321538
  C         6.1320750026        0.0160570356       28.9940946744
  C         5.2851803202        2.1828401253       29.8229795094
  C         8.8322074060        2.4881849353       20.6279734952
  C         9.1520438361        3.8164103723       19.9096083217
  S         9.5134308959        6.3334375274       19.9412525267
  H         2.3219109485        7.2988021001       25.6873147626
  H         3.7785919979        7.2411733282       26.6783808258
  C         2.5668122380        5.3968251143       26.4500718615
  N         6.4153059948       -0.9241682623       28.0628926090
  C         5.8704171048       -0.5699942592       30.1895848906
  C         5.0445199252        1.6256372751       31.0041278060
  H         4.9210091706        3.1911929620       29.5662784214
  C         7.7181457905        1.5945106177       20.0337314346
  C        10.0958233482        1.6081758003       20.8281126913
  C         9.5980090708        4.1978653181       18.5862084998
  C         9.7021254044        5.5458347925       18.4797343909
  H         1.7956119351        5.0892026731       25.7372245501
  H         3.1401162180        4.4690135151       26.5690770532
  C         1.8439614758        5.6410405050       27.7583869138
  S         6.3209936350       -2.4194471409       28.6433703961
  N         5.9876492573       -1.9710563345       30.2123714802
  C         5.3608870155        0.1661287850       31.2610717448
  H         4.5495415021        2.2963878440       31.7443544909
  H         7.7195271781        0.7770200313       20.7490963604
  H         8.1171580212        1.2747527649       19.1002535902
  C         6.4321810150        2.3122466688       19.6716346516
  H        10.2657872054        1.1281283037       19.9025460345
  H        10.0165523604        0.8703729351       21.5624320659
  C        11.3853875577        2.4694080068       21.1285056036
  H         9.7447902592        3.4497232348       17.8508672123
  C        10.1462262507        6.2380432699       17.2415755746
  H         1.3618963035        4.7652050553       28.1280412511
  H         1.1210467474        6.4643075048       27.6932564865
  C         2.8887283192        6.0453657977       28.8628286275
  C         5.1622371865       -0.5141924263       32.5235856893
  H         6.5571345337        2.9501892919       18.7976157231
  H         6.1115131955        2.9611452217       20.4806601148
  C         5.2629397969        1.3803900798       19.3665598580
  H        11.1336955324        3.1123803097       21.9992789768
  H        11.6933372651        2.9883390491       20.2176032737
  C        12.4855459276        1.6051458139       21.6347489184
  C        10.3090008530        7.6221353507       17.0640719049
  C        10.4505874665        5.4200576811       16.0064335548
  H         3.8465607197        5.5049031496       28.6697540059
  H         3.0955002273        7.0863835624       28.8548347841
  C         2.2999495148        5.6826043339       30.2838989754
  H         5.1137474371       -1.5839007430       32.4928636473
  C         4.9849395458        0.0171571751       33.8014401986
  H         5.1028436245        0.9014177701       20.2290330597
  H         5.6235805083        0.6293303009       18.6376387369
  C         4.0326404177        2.0047555368       18.6974145132
  H        12.1149105771        0.9978966570       22.4701174564
  H        12.7811992604        0.8694709840       20.8633749623
  C        13.6462441609        2.5373843335       22.0616191397
  N        10.0509391252        8.5485329608       18.0643508526
  C        10.7390408119        8.2194640650       15.9327386343
  C        10.8469472603        5.9592347945       14.7994187643
  H        10.4077759010        4.3092524545       15.9793884533
  H         2.9590932559        5.9574457161       31.1107882643
  H         1.4334388538        6.2866847393       30.3814907867
  H         1.8552282289        4.6705490809       30.2659928768
  S         4.8602113797        1.6426030853       34.2609809874
  C         4.8383734143       -0.9632594909       34.9653906202
  H         3.4709581936        2.6655048259       19.3858636899
  H         4.4372030271        2.7747903989       18.0172090768
  C         3.0566448233        0.9931869236       18.0771372676
  H        13.1802347910        3.2723241523       22.8010226102
  H        14.1140669261        2.9100863030       21.2152284347
  C        14.8283991895        1.8151092395       22.7422284928
  S        10.1363587584       10.0717574657       17.4873381278
  N        10.6674948210        9.6267812432       16.0238283826
  C        11.0185962766        7.4873122452       14.7046089383
  H        11.0919420270        5.3011791101       14.0204411248
  C         4.3567742910        1.0515080163       35.8849854285
  N         4.4394868058       -0.2785502690       36.0697457788
  O         4.8121651281       -2.1530271418       34.7981363515
  H         3.4458087383        0.9062679289       17.0451825412
  H         2.0622040162        1.4378525099       18.0957740467
  C         3.0054398430       -0.4199668647       18.7261177760
  H        14.6035594981        1.7995296246       23.8638240715
  H        14.9711587932        0.7942175032       22.4439673685
  C        16.1699361202        2.5440067699       22.4613141859
  C        11.3802268970        8.1454786453       13.5194811131
  S         4.0001113822        2.1617163586       37.2287506805
  C         4.4171554098       -0.9122646734       37.4306694102
  H         3.9055882363       -0.9544132329       18.6607674652
  H         2.9474485611       -0.3330276273       19.7989026227
  C         1.8744418841       -1.2542092235       18.1455772535
  H        16.0819008663        3.6015220797       22.7511231894
  H        16.3752563899        2.7174698764       21.4084925365
  C        17.4258787688        1.9095707098       23.0493062217
  H        11.3211886295        9.1982536580       13.5714566960
  C        11.8635041380        7.7129126037       12.3441357524
  H         3.7931263917       -0.5013449007       38.2230480771
  H         3.9451213000       -1.8719848902       37.2481622382
  C         5.7928599497       -1.2132134578       37.9478978821
  H         0.9967317580       -0.6152397099       18.0510681826
  H         1.5365020803       -2.0851615022       18.8033699729
  C         2.1680247320       -1.8298876890       16.7256176993
  H        17.6746753442        0.9862939698       22.5476361061
  H        18.2964884098        2.4857775899       22.8005843288
  C        17.3298015188        1.7966740675       24.5825922112
  S        12.3300957404        6.1015835758       11.8757890639
  C        12.0338853399        8.6656981369       11.2106610989
  H         5.7994416082       -1.8133365152       38.8532467902
  H         6.3959401771       -1.7528406930       37.2055206570
  H         6.4487462840       -0.3893918355       38.2657351600
  H         3.2148210136       -2.0580985803       16.4527864379
  H         1.8400043104       -1.0359896808       16.0260630788
  H         1.6208655727       -2.6760501175       16.2709281684
  H        16.6635293817        2.6029902370       24.9563921172
  H        18.2893154336        1.7565485742       24.9239660085
  H        17.0465988592        0.8000833383       24.9674320164
  C        12.8054137347        6.6846862680       10.3570874471
  N        12.6827316831        8.0345536822       10.2102818024
  O        11.6929115158        9.8427948752       11.2924595602
  S        13.4042609953        5.6864529760        9.0722244108
  C        12.9512862376        8.8074362168        8.9767920589
  H        13.4802916772        9.7141259226        9.3094741036
  H        13.6124080413        8.2530335403        8.3397977698
  C        11.6773517906        9.2036834771        8.1969661768
  H        11.7052243060       10.3151970655        8.1753523562
  H        11.5484635622        8.7917839462        7.1887508300
  H        10.7254217895        9.0302031175        8.6775179439
  H         2.8775852972        2.9715940330       12.8228691348
  C         3.4989896291        2.2346150142       13.1692852768
  H         2.9774100494        1.3745498243       12.8224926702
  C         4.8515490607        2.2653321900       12.4905405478
  C         3.5556798872        2.2239835453       14.7336104915
  C         4.7983822060        2.4036058814       10.9581860608
  H         5.3310012971        1.3480525779       12.8444646942
  H         5.4075418066        3.0884845610       12.8640255246
  H         4.1603228167        2.9882375408       15.2171207687
  H         4.0206446963        1.3190231138       15.1041100009
  H         2.5185913580        2.4000025621       15.0050167576
  C         5.1968182592        1.1221366631       10.1988500625
  H         3.8818488405        2.8204434458       10.5779274272
  H         5.4575928856        3.2212258916       10.6995952841
  C         5.7973696564        1.3712709969        8.8046233415
  H         4.3623500906        0.4183972612       10.1613052468
  H         5.9505104245        0.5779003776       10.7879933404
  C         7.1604950511        2.1401938516        8.7112096079
  H         5.1017283345        1.8318311501        8.1554102622
  H         5.8429509192        0.3425018381        8.4748797026
  C         8.3752957600        1.4087178758        9.3451423966
  H         7.2604295212        2.2477660224        7.5994237574
  H         7.0071292639        3.0887026324        9.2831534619
  C         9.6174718611        2.3156633020        9.3546729806
  H         8.6252213632        0.4848267796        8.7969643384
  H         8.0616459300        1.1701864532       10.3602396391
  C         9.2737170212        3.6940695796        9.9973705297
  C         9.8673546859        2.9639667190        8.0078979323
  C        10.8806019968        1.5884729044        9.9058893689
  C         9.4782724052        4.7588688253        9.1593555038
  C         8.8628789639        4.1915884230       11.2287801047
  C         9.8783015191        4.3118382028        7.9160235151
  C        10.3097207291        2.3218026708        6.8417383899
  H        10.4724702764        1.2981241943       10.8569192918
  H        11.2151851296        0.7008209512        9.3752568762
  C        12.0775177587        2.4423552776       10.1416716274
  S         9.0500186822        6.3080670073        9.8170539893
  C         8.6450303428        5.5482338326       11.3015947236
  H         8.7539415042        3.4988478971       12.0341382482
  C        10.1292667173        4.9137837302        6.6875916996
  H        10.3172417123        1.2515556684        6.8213557585
  C        10.6345114111        2.9393954330        5.7040102979
  H        11.7186798142        3.4712272660       10.3865178202
  H        12.7181601536        2.4643165689        9.1468946450
  C        12.9363718545        1.9077540024       11.2929091521
  C         8.2139056758        6.1744764841       12.5746905379
  C        10.5484703811        4.2850168067        5.5588392019
  H        10.1614782872        6.0265909752        6.6699178802
  C        11.0726144673        2.5110588432        4.4503968842
  H        13.8800712174        2.3659682561       11.0966848821
  H        12.9634515297        0.8331420830       11.1715619544
  C        12.4044179417        2.1685480900       12.7059830720
  C         8.2279153576        7.5710310663       12.8041557861
  C         7.6623581625        5.3647458179       13.7040757271
  C        11.0287493600        4.9283216283        4.2881681924
  C        11.2991741287        3.5782037954        3.6220398256
  S        11.4525851726        1.0150018713        3.6801885176
  H        12.1605709680        3.2740330754       12.7154237548
  H        11.4078686381        1.7031621979       12.8240719912
  C        13.2582775331        1.8130007897       13.9700023936
  N         8.5720562532        8.5064640120       11.8488133043
  C         7.8138179514        8.1791507070       14.0482589743
  C         7.2676060591        5.8959467997       14.8854497925
  H         7.2684926003        4.4404494535       13.5526239855
  C        12.3325046091        5.6456278386        4.5730365121
  C        10.0188640690        5.8394407131        3.5669342247
  C        11.7353939869        3.1714091208        2.3402197269
  C        11.9046820642        1.8287277640        2.2092579698
  H        14.2893137431        2.2801862979       13.8434337792
  H        13.3819137549        0.7684425131       13.9376165429
  C        12.6675948706        2.4225477546       15.2440130478
  S         8.4393832516        9.9926549978       12.4980278870
  N         7.9137194339        9.5784641025       14.0270891874
  C         7.4168288883        7.3603036231       15.1292178750
  H         6.8986760821        5.2299333600       15.6410657871
  H        12.2843775405        6.5248691060        5.1415468791
  H        12.7976804003        5.9166415096        3.5859086604
  C        13.4830805843        4.7926003358        5.2655289172
  H         9.7054028088        6.5155176109        4.4007990722
  H        10.3969584784        6.4279210460        2.7249065484
  C         8.7630180743        5.0528544518        3.0686326131
  H        11.8423412110        3.9005181882        1.5435866568
  C        12.1733937188        1.0768296168        0.9063446843
  H        12.5565416760        3.5433010745       15.0310242308
  H        11.6567061109        1.9470660463       15.3485391872
  C        13.5345969718        2.1368388194       16.4446271921
  C         7.0469469186        8.1397218292       16.2888673588
  H        13.0658732080        4.5370884316        6.2713027118
  H        13.7098068871        3.9017201489        4.6706769642
  C        14.7594165959        5.5128172908        5.4673353273
  H         8.2280882133        4.5698913165        3.8993121337
  H         9.0805475764        4.2806084007        2.3411069234
  C         7.8844038956        6.0965880871        2.4264421464
  C        12.0872218219       -0.3292345112        0.6443219573
  C        12.4898805806        1.9298170827       -0.3268452119
  H        14.3453891867        2.8752012255       16.6850423938
  H        13.8968787203        1.1548990698       16.2586602554
  C        12.5966699377        2.2643207478       17.6539426444
  H         7.1793887542        9.2397609657       16.2483940477
  C         6.7306738461        7.7846934849       17.5743135165
  H        14.5562090765        6.5131726856        5.8729214812
  H        15.1869416437        5.8249319903        4.5187830072
  C        15.8568432709        4.7189870442        6.1920467050
  H         7.6388446032        6.9183869501        3.1114143050
  H         8.4242867591        6.4938062532        1.5710866105
  C         6.6028386655        5.4763154373        1.9540138241
  N        11.8882533319       -1.2279193416        1.6576773540
  C        12.3914271248       -0.9058607365       -0.5596244022
  C        12.7052411710        1.3716826256       -1.5515643359
  H        12.5983217338        2.9702694685       -0.2832427576
  H        13.1388189569        1.7219774594       18.4571360090
  H        11.5892440017        1.8954430980       17.5898808195
  H        12.5636136151        3.2533037148       18.1156268261
  S         6.4250214085        6.1609565492       18.1285120013
  C         6.7375616524        8.7838177774       18.7006795973
  H        15.3399649184        4.0752616635        6.8850899659
  H        16.2414693124        3.9799574999        5.5427850977
  C        16.8963858634        5.6499717375        6.8726114774
  H         6.5198797309        4.4831288863        2.2860811928
  H         6.5720253322        5.4146560263        0.8513346806
  C         5.3778043856        6.2735340356        2.3082972504
  S        12.0294128912       -2.6632804698        0.9257098682
  N        12.5009790042       -2.2465374497       -0.5549597015
  C        12.6919890400       -0.1158380410       -1.6793065715
  H        12.9741164694        1.9240737917       -2.4355379068
  C         6.3286275396        6.8960053464       19.7198546192
  N         6.4331952842        8.2799562215       19.8870604969
  O         7.0163767454        9.9640184704       18.4742886230
  H        17.2587927682        6.4884483856        6.2555848291
  H        16.4973713929        6.0483863105        7.8110100301
  C        18.0219826083        4.8542861675        7.4133837349
  H         4.5614834355        5.5331243088        2.4907627278
  H         5.4574206659        6.9837598062        3.1662867297
  C         4.9432371394        7.2201422672        1.1719014252
  C        12.8378810754       -0.7531273097       -2.9846946134
  S         5.8908746756        5.9571956265       21.1451757997
  C         6.4376114832        9.0776726232       21.1336203218
  H        17.5484764146        4.5013345599        8.3247642516
  H        18.2170976198        4.1023094165        6.6801697940
  C        19.2751923629        5.6567547028        7.7345175330
  H         4.7588588482        6.5559588229        0.3360972247
  H         5.7929262409        7.8198146854        0.8742025612
  C         3.7681294139        8.1048992852        1.3327969516
  H        12.4045166044       -1.6944807491       -3.0406573745
  C        13.3331563826       -0.3640390219       -4.1900300352
  H         5.5604288772        8.7276159996       21.7711858547
  H         6.0426418369       10.0207335393       20.7402942708
  C         7.8458126943        9.2407941843       21.7160894775
  H        20.0244609383        5.2649539643        8.3954519682
  H        19.0139433083        6.6921451065        8.0972370621
  C        19.9419603612        5.8635895674        6.4473765024
  H         3.3894836976        8.5629247256        0.4608183086
  H         3.0912610195        7.4543113024        1.8522266651
  C         4.0332817469        9.2306086097        2.3232443694
  S        14.1300613009        1.1678165302       -4.4702778155
  C        13.4476714759       -1.3807137408       -5.2595947555
  H         7.7591096865        9.8628728096       22.6070626910
  H         8.5309046537        9.7926362706       21.0255802178
  H         8.2504784230        8.3082587495       21.9437599962
  H        20.4679201906        4.9057315559        6.1985698584
  H        19.2359522512        6.1320479354        5.6272041243
  H        20.6829535272        6.6022764602        6.4788909803
  H         4.7954377034        9.8916132894        1.8518407465
  H         3.1010186385        9.6171879361        2.5497485974
  H         4.3579186814        8.9547860284        3.2963338700
  C        14.3296315204        0.6027283011       -6.0594236367
  N        14.0959390249       -0.7359610299       -6.2832484862
  O        13.1365393052       -2.5885393335       -5.2271917258
  S        15.2475982399        1.3846015106       -7.2793994292
  C        14.0910969776       -1.4605512230       -7.5020976099
  H        14.4091906452       -2.4426988618       -7.3489001169
  H        14.8741628956       -0.9711389730       -8.0923800067
  C        12.8270680235       -1.3285003338       -8.2260732845
  H        12.7861653660       -1.7049686838       -9.2451541104
  H        12.5275525356       -0.2805400652       -8.3376918442
  H        12.0927358205       -1.8056707504       -7.5809507882
