352
 i =   108400, time =    54200.000, E =        99.2273589060
  H        10.2959920433        4.5816900707       31.8142194128
  C        10.3065256285        5.4766794159       32.3602413194
  H         9.3252960490        5.9033869065       32.3714139779
  C        11.2214139477        6.3965863720       31.6312393967
  C        10.8438969977        5.3968845340       33.8117203424
  C        10.8458750685        6.6528000407       30.1506989886
  H        11.4433678741        7.2969091901       32.1833592838
  H        12.1284047859        5.8765323332       31.5865060507
  H        10.6711868336        4.4197181842       34.2366277201
  H        11.9097247519        5.7237496182       33.9663159384
  H        10.2518831114        6.1697820463       34.2877005436
  C        10.4992879431        5.5137565240       29.2113676472
  H        11.7600078694        7.1647000890       29.8001058670
  H        10.0420669012        7.3188764330       30.0626122248
  C        10.8430695214        5.8620831184       27.7159482552
  H        10.8987334983        4.6589233904       29.5720208845
  H         9.3478018021        5.4922268687       29.2501846607
  C         9.8935201246        5.3143703172       26.6943886415
  H        11.8579382258        5.4498266486       27.5571013987
  H        10.9335043609        6.8634524961       27.5642361307
  C         8.6188846801        6.1460852293       26.3082481687
  H        10.4526563316        4.9607628676       25.8555297882
  H         9.4762243002        4.4313853746       27.2885366453
  C         7.4094115484        5.4084148702       25.6693668866
  H         8.3029545571        6.7959022549       27.1109333294
  H         8.8812208933        6.8243471802       25.5709665489
  C         7.0963257336        3.9937575895       26.3191123288
  C         7.8173956789        4.7079910909       24.4293707839
  C         6.1161605185        6.2347491227       25.6892757198
  C         7.3300982109        2.9366115822       25.5088244112
  C         6.5502359544        3.5459822435       27.5107616723
  C         7.7206634475        3.3366259735       24.2637264346
  C         8.3245317389        5.2930696089       23.2593525981
  H         6.3100266911        7.1625212263       25.1735710510
  H         5.8488353263        6.5900399875       26.7047305076
  C         4.8673977331        5.6271488204       25.0116250043
  S         7.1526723631        1.4056173058       26.2469074929
  C         6.4317328247        2.2114305333       27.5936060118
  H         6.2963362210        4.3133907062       28.2665414966
  C         8.0702777029        2.7096881914       23.0625829924
  H         8.3618688524        6.4016922730       23.2080120030
  C         8.6634364964        4.6247736617       22.1315197407
  H         5.1002895127        5.4113683160       24.0100746978
  H         4.5802623677        4.6529765424       25.4386693124
  C         3.5888195737        6.5402902888       24.9731915085
  C         5.9698281696        1.4578687701       28.8679012562
  C         8.6165741198        3.2801418310       21.9754211654
  H         7.9751104846        1.6375887171       23.0913352034
  C         9.0287081581        5.1317548777       20.9183269728
  H         2.8497858452        6.3542026408       24.1352160391
  H         3.9378329587        7.4389007649       24.5632066109
  C         2.8590889330        6.6578572961       26.2566036766
  C         6.0161994285        0.0434862058       29.1109336159
  C         5.5444472263        2.3270952376       29.9976690891
  C         9.0262902343        2.7264187183       20.6607863689
  C         9.2102928674        4.1035845140       20.0330518662
  S         9.1022066178        6.7063210104       20.2860055905
  H         2.0030317099        7.2853537981       26.0916624489
  H         3.5034206029        7.1015473020       27.0264397568
  C         2.4409405636        5.2471125849       26.7758763394
  N         6.5169257887       -0.8201184707       28.1770570938
  C         5.6061350722       -0.4808624167       30.2971008096
  C         5.1938206109        1.7644181893       31.1920606606
  H         5.4552009418        3.4192248232       29.8521460884
  C         7.8465153138        1.9215858706       20.0090687349
  C        10.3071230808        1.9167993928       20.6524372583
  C         9.6361584783        4.6001616989       18.7979704518
  C         9.5962098502        5.9763222305       18.7433736436
  H         2.0054781372        4.6685368551       25.9970469467
  H         3.3064841155        4.7373056327       27.0981991528
  C         1.4006057438        5.3747668831       27.8169714932
  S         6.4557421650       -2.2571791020       28.7904027313
  N         5.8516921337       -1.8636784477       30.3029853702
  C         5.2420435526        0.2815419313       31.4125560646
  H         4.8901265419        2.4214533804       31.9921379958
  H         7.6884555025        1.0988232302       20.6350564781
  H         8.1621713861        1.5125311303       18.9898413940
  C         6.6274703645        2.8144729153       19.8004718183
  H        10.4915829306        1.8468408314       19.6229682565
  H        10.1934543401        0.9707292022       21.0387664822
  C        11.5367417562        2.5177864211       21.3497231208
  H         9.8357800118        3.9040062476       17.9941119499
  C         9.8451056907        6.7218362263       17.4977140072
  H         1.0046880562        4.4061524901       28.0839753984
  H         0.4594068429        5.7640480670       27.4191421471
  C         1.8346320685        6.1598443160       29.0881403039
  C         5.0269915784       -0.3517203111       32.6004131013
  H         6.9425976755        3.6473411654       19.1397775638
  H         6.2926493792        3.3527118127       20.7467785757
  C         5.5411924973        1.9086867184       19.1415005575
  H        11.2858584226        3.0590048013       22.2803291591
  H        12.0684841782        3.2141745529       20.6807457200
  C        12.4636536074        1.4162434555       21.7957663340
  C         9.9242824906        8.1260341510       17.2600304253
  C        10.0684692117        5.8978149401       16.2815055041
  H         2.3772824711        6.9711090708       28.8397285381
  H         1.0021750791        6.4661298654       29.6795169760
  C         2.7521035170        5.3364848769       30.0332953673
  H         5.3890666870       -1.3580170588       32.5854450741
  C         4.6962283655        0.0384318781       33.8911371277
  H         5.1951719673        1.2009291504       19.8792419808
  H         5.9804881157        1.2842750065       18.3192297805
  C         4.3494402490        2.7414897396       18.6704964861
  H        11.9004388527        0.7227425819       22.3506539948
  H        12.9639550037        0.8155174152       20.9966448403
  C        13.5204574210        1.9497623618       22.7459644560
  N         9.7561995186        9.1267138156       18.2603823899
  C        10.2077998868        8.6874456939       16.0516701307
  C        10.4621815127        6.5048294090       15.1034187611
  H        10.1245600952        4.8377767952       16.3429988322
  H         3.7097162395        5.8202154136       30.2789783032
  H         2.2098537659        5.0834532119       30.9757414614
  H         3.0323603753        4.3288881356       29.6227205540
  S         4.1652768949        1.6325332657       34.4123176152
  C         4.6561974516       -0.9788590772       34.8931228390
  H         3.8153880952        3.2194726629       19.4869784825
  H         4.6786924772        3.5074219868       17.9676720843
  C         3.2938137845        1.9989649662       17.8709733090
  H        13.8035915955        1.1343343501       23.3558812124
  H        13.2542137854        2.7771019190       23.4600205424
  C        14.8567920687        2.2102330575       21.9943836100
  S         9.7376923114       10.5482834187       17.6079144797
  N        10.1281508616       10.0660200408       16.0981050868
  C        10.5093163384        7.9193003939       14.8998300061
  H        10.7028169633        5.8208491401       14.3322485362
  C         4.1189238336        0.9206751996       35.9986541195
  N         4.2652707680       -0.4036265729       36.0394776138
  O         4.9371992829       -2.1845304257       34.7014935697
  H         2.8001096942        2.4295568022       17.0859677967
  H         2.4177761919        1.7911766023       18.5224247731
  C         3.7029750731        0.6090630965       17.4070304806
  H        15.2938558170        1.2010931623       21.7646556052
  H        14.7484766645        2.6216490893       21.0139040402
  C        15.9490682956        2.9615789683       22.8370832101
  C        10.8525817932        8.5834997660       13.7114505589
  S         3.8177833848        1.8312813524       37.4623272713
  C         4.2805820285       -1.2345735879       37.2358242146
  H         4.6180032142        0.6892220558       16.7725928481
  H         3.9720519182       -0.0276336745       18.2566863142
  C         2.6475333005       -0.2368645088       16.7214507842
  H        15.9580966021        2.5799554616       23.8698490307
  H        15.7115706686        4.0256918821       22.7838884114
  C        17.3145129508        2.8006646133       22.1822849427
  H        10.8508437568        9.6574371687       13.7840165032
  C        11.3180562934        8.1844743949       12.4892217967
  H         3.3211703058       -1.1630493902       37.7932468747
  H         4.4077670920       -2.2988836081       36.9315026131
  C         5.4993110871       -1.0033192134       38.1603600615
  H         2.2802849205        0.2171531858       15.7715582411
  H         1.7103708336       -0.0850436838       17.3131176115
  C         2.8241238314       -1.7323124881       16.8481586700
  H        17.2198118456        2.3254540255       21.2242933178
  H        17.7553814608        3.7804737981       21.9966797149
  C        18.1518908105        1.9809690073       23.1705551977
  S        11.7354519839        6.6218865192       12.0370642158
  C        11.4914997087        9.2574900513       11.4086162094
  H         5.5364218219       -1.6549223300       39.0389327058
  H         6.4164357256       -1.2946586337       37.6129774471
  H         5.6631358671       -0.0362680848       38.5918340924
  H         3.1370026545       -1.8661773797       17.8654413522
  H         3.6452868641       -2.0419665783       16.2038990311
  H         1.8501129710       -2.2295178104       16.6887926285
  H        19.0796465313        1.6277651630       22.7353412597
  H        17.6602691547        1.1023163340       23.4757828818
  H        18.3193636924        2.4119827422       24.1506484093
  C        12.2838073899        7.3772668170       10.4775568498
  N        12.1266468553        8.7108416565       10.3372943530
  O        11.1535819658       10.4475700648       11.4826047213
  S        13.0899563593        6.5290725315        9.1561680307
  C        12.2024514266        9.4509725448        9.0390673956
  H        12.4268416338       10.4774743702        9.2560537466
  H        12.9707403726        9.0879370387        8.4110495297
  C        10.8700295165        9.3450212862        8.2410182663
  H        10.7850168663        8.4482751133        7.6488066393
  H         9.9568964241        9.3585567681        8.9200796413
  H        10.5785759672       10.1025846041        7.5521523147
  H         2.6392610019        3.3524072412       12.3436072251
  C         3.2715750838        2.5762628984       12.7228375469
  H         2.5829398399        1.7642525726       12.6655197364
  C         4.4015641940        2.2218937176       11.7658763956
  C         3.7810033582        2.9112590600       14.1400614845
  C         3.9798895861        1.8800243696       10.2899124620
  H         4.9711838522        1.4478851726       12.1588505626
  H         5.0733970249        3.0852215704       11.6874360154
  H         4.7315323028        3.5046127905       14.0378645279
  H         3.9017508958        2.0860604022       14.8644528054
  H         2.9913937612        3.6194786379       14.5438556610
  C         4.9366345575        1.0189938302        9.4701488158
  H         3.0402243590        1.3539548552       10.3111212199
  H         3.7514376583        2.7812852493        9.7243120104
  C         5.6041942741        1.7022603772        8.2606460571
  H         4.3502490872        0.2385863933        9.0554555717
  H         5.6512167173        0.5623478863       10.1465944434
  C         6.7402907248        2.6523290257        8.4734327121
  H         4.8778642406        2.2911600873        7.7660732686
  H         5.9051705155        0.8947684659        7.5707081888
  C         7.9317424804        1.9137915312        9.0087523867
  H         6.9788501621        3.1934071972        7.5166013139
  H         6.4663143157        3.2689012521        9.2755158392
  C         9.1641856211        2.8186099320        9.2288531256
  H         8.1703673487        1.1918942973        8.2869938227
  H         7.6137603232        1.5058881690        9.9785526259
  C         8.8274656874        4.1542199624        9.8447825524
  C         9.6921104963        3.5198266113        7.9649647536
  C        10.2717281182        2.1333655769       10.0234387737
  C         9.1146042887        5.2664637339        9.0375179320
  C         8.2158128464        4.5275657103       11.0418124342
  C         9.6168136254        4.8673643374        7.8539644708
  C        10.2405826016        2.8876758875        6.8464389419
  H         9.9424084416        1.9422505254       11.0455583022
  H        10.5113837110        1.2126840739        9.6135830815
  C        11.5566757634        3.0437819465       10.2269473846
  S         8.6765386855        6.7623877127        9.7452156000
  C         8.1129090694        5.9121309466       11.1781356569
  H         7.9170710690        3.7168366946       11.7347885825
  C        10.0691512526        5.5385992373        6.7683830633
  H        10.2639105094        1.8669517489        6.9189262996
  C        10.6767180337        3.5126207511        5.6928447236
  H        11.2011724991        4.0015618588       10.5743561161
  H        11.9485520276        3.2778491224        9.2864461622
  C        12.6339336093        2.6889709998       11.2363487216
  C         7.7205861928        6.6566791226       12.4433508278
  C        10.5341384338        4.8973109132        5.6131472419
  H        10.0100264510        6.6829198460        6.7732963546
  C        11.0593616421        3.1972827820        4.4159485884
  H        13.5971539258        3.2419786964       11.1379505042
  H        12.7486081499        1.6124964523       11.1553452383
  C        12.1103007563        2.8684724811       12.6367461058
  C         7.6770841822        8.0914964111       12.6316420466
  C         7.3281879506        5.8507767118       13.6431649085
  C        10.9695110149        5.5944756130        4.3565901873
  C        11.2357193072        4.2813063419        3.5761446726
  S        11.3068211520        1.6495694997        3.6270555806
  H        12.2621155421        3.9848405980       12.7981304369
  H        11.0916721025        2.6290640705       12.6839176220
  C        12.8758751428        2.2097091238       13.7771751465
  N         8.0651697389        9.0326484151       11.6787037863
  C         7.5027983366        8.6851594904       13.8713511478
  C         7.1142280281        6.4581330951       14.8747011592
  H         7.2503376758        4.7464521742       13.5939444743
  C        12.2348110765        6.5300906024        4.4519548522
  C         9.7338719900        6.3236222380        3.8362705223
  C        11.6429923783        3.8343423061        2.2936055110
  C        11.6667654163        2.4599441290        2.1500134622
  H        13.8779397823        2.4682514363       13.7466864866
  H        12.7548881190        1.1286085534       13.7683909378
  C        12.3241138315        2.6665848750       15.1123958776
  S         8.1484886880       10.5080809789       12.3151678944
  N         7.5483630426       10.0845413768       13.7762897787
  C         7.1953620749        7.9635685816       15.0253238997
  H         7.2237800596        5.7614915169       15.7091256908
  H        11.9511802375        7.4214853238        5.0983656777
  H        12.4761136912        6.7943282919        3.3995828594
  C        13.3824915393        5.8807270804        5.1429985992
  H         9.3929887043        7.0604616335        4.5408061799
  H         9.9599691208        6.9806904042        3.0345035292
  C         8.5550906062        5.4410996967        3.3188753839
  H        11.8776051403        4.5812025382        1.5910902276
  C        11.9026852785        1.7325813234        0.8493853666
  H        12.1862210639        3.7728940000       15.0234990066
  H        11.3681525371        2.2019194725       15.2577279062
  C        13.2276640982        2.2122395612       16.2209313961
  C         6.9357427495        8.6515374104       16.2097924423
  H        13.2264076543        5.8351953609        6.1948104137
  H        13.5828899845        4.8811785935        4.7381981169
  C        14.7047562579        6.5846105967        4.9333482827
  H         8.1872940565        4.7900572060        4.1168282574
  H         9.0067569879        4.7046879096        2.6619708227
  C         7.5782008501        6.4820676611        2.5358970214
  C        11.9499563747        0.3011188518        0.6581461833
  C        12.1987116042        2.5185711747       -0.3591286102
  H        14.1767667137        2.6657083772       16.1902245650
  H        13.2381478827        1.1644442651       16.0015007905
  C        12.6970370015        2.6119593683       17.6128964341
  H         7.1714125047        9.6679006006       15.9835951091
  C         6.6129204741        8.1986572350       17.4569798872
  H        14.7432811957        7.4930259503        5.5242816058
  H        14.7411888927        6.9063992228        3.9207630763
  C        15.9996425601        5.7392687151        5.1389212512
  H         7.2559112709        7.2594586757        3.2158013375
  H         8.0362724383        6.9545453023        1.7092161062
  C         6.3015844209        5.8471016571        2.0156521728
  N        11.6680646292       -0.6712100684        1.6926597758
  C        12.2042984741       -0.2792715007       -0.5660212916
  C        12.4481794025        1.8846671914       -1.5469144636
  H        12.2189332267        3.5713681938       -0.2632959784
  H        13.3133097709        2.2374131741       18.4424789799
  H        11.6988868728        2.2931698169       17.8399985059
  H        12.7209144340        3.6736119204       17.7658050189
  S         6.3192561866        6.5208323842       18.0062483239
  C         6.4765813190        9.2633250535       18.4743660196
  H        16.1001477943        5.1153210474        4.3123215074
  H        16.8478117632        6.3952132301        5.1614816289
  C        16.0678386676        4.7303832543        6.3462449441
  H         5.9622498280        5.0849910847        2.7054637031
  H         6.5034822886        5.3363049469        1.0702605177
  C         5.1583199237        6.8017829373        1.9851519712
  S        11.7638687679       -2.1835390650        0.9975151792
  N        12.2978496403       -1.6852099630       -0.4980388639
  C        12.3786138825        0.4464538393       -1.7393261628
  H        12.5801339953        2.4835329442       -2.4543944785
  C         6.0019433489        7.2776248196       19.6228760769
  N         6.1973541657        8.6155593582       19.6290207288
  O         6.4390929319       10.4685600345       18.2360413089
  H        15.7122289006        5.3660951504        7.1678973036
  H        15.3338794973        3.9140151849        6.3839704231
  C        17.5057923332        4.1983713923        6.6629638618
  H         4.3943844728        6.0706344869        1.9541785257
  H         5.1362279679        7.3933868002        2.9182656543
  C         5.1492678979        7.8158679649        0.8171576143
  C        12.6772859087       -0.2173869197       -2.9432961380
  S         5.6166213866        6.3701503701       21.1084004680
  C         5.9113510792        9.3598440137       20.8920508757
  H        17.3580443331        3.4139940867        7.3649811251
  H        18.0758511398        3.9621933998        5.7766473508
  C        18.3579995306        5.2579203452        7.4113282843
  H         5.2891766575        7.1858478466       -0.0649364316
  H         6.0782383229        8.4141282720        0.7515336796
  C         3.9068208112        8.6551556951        0.6010445271
  H        12.5306848109       -1.2974937148       -2.8601312303
  C        13.1828865313        0.2245661153       -4.1640385240
  H         5.2915647059        8.8531708093       21.6060975823
  H         5.3130934925       10.2230670998       20.5543081257
  C         7.1143908716       10.0323910331       21.5839296684
  H        18.5334471606        4.8639573309        8.4523394048
  H        17.8024370833        6.2106006941        7.5658581923
  C        19.5951611200        5.5464708465        6.6359339840
  H         3.5531919893        8.4409148956       -0.3635794918
  H         3.1471070209        8.2747454468        1.3343637413
  C         4.3407124867       10.1489854802        0.6754715565
  S        13.7168996066        1.8072610971       -4.6060544989
  C        13.2386083952       -0.7587628769       -5.2536760592
  H         7.5025747458        9.4214968906       22.3688738429
  H         6.8500555408       10.9138339992       22.1275485315
  H         7.9513344255       10.1432874711       20.8558341068
  H        19.2583649961        6.0031765873        5.6742536642
  H        20.1801667688        6.2904035105        7.2485394995
  H        20.2023428301        4.6282678461        6.4179413004
  H         4.8867325507       10.5360282885       -0.1495090962
  H         3.5572132752       10.9405848163        0.9308171369
  H         5.0045823592       10.2890753472        1.5671197344
  C        14.2411835636        1.0353732604       -6.1543859906
  N        13.8956292070       -0.2530887651       -6.2632635691
  O        12.7486855434       -1.8802448740       -5.2308046023
  S        14.8528332443        1.8351490679       -7.6427839315
  C        13.9451481028       -1.1251001429       -7.4692957019
  H        14.1644523718       -2.1641049841       -7.0760330357
  H        14.7146376354       -0.9007459054       -8.1270180846
  C        12.6613529991       -1.0829562475       -8.3186683704
  H        11.8528300271       -1.6677701799       -8.0504773424
  H        12.8583226587       -1.0562602339       -9.3750673307
  H        12.4293804446       -0.0658750813       -8.0347906072
