352
 i =   118400, time =    59200.000, E =       100.1738654451
  H         9.6139969851        5.9731299534       31.8133510714
  C        10.6893284885        5.7758799516       31.8872746386
  H        11.2524097046        6.7158650120       31.9043474730
  C        11.0827523670        4.9135142076       30.6908563121
  C        10.8422818704        5.0764003401       33.2878876762
  C        10.5554504117        5.3704958437       29.3715807436
  H        12.1911384465        4.9097076494       30.7382565046
  H        10.7454707432        3.9367874011       30.8566944350
  H        10.0581789727        4.3276309743       33.2478124697
  H        11.7926396249        4.4742658377       33.3398920260
  H        10.8024766365        5.6390052809       34.2084847006
  C        11.2434377175        4.6558796222       28.1677790545
  H        10.5380482390        6.4609004429       29.2337345093
  H         9.4704017282        5.0933265696       29.3593320193
  C        10.5827497032        4.9895657963       26.8827907615
  H        12.2842369296        4.8882673131       28.1241876404
  H        11.3714180126        3.6217455356       28.2774885266
  C         9.1968487492        4.3412856944       26.7144772622
  H        11.2290439680        4.7696804051       26.0771128643
  H        10.4968639771        6.0544963668       26.8140168581
  C         8.1268945073        5.3570627522       26.1865473854
  H         9.4505028893        3.4910523457       26.0745908024
  H         8.8140040661        3.8814678773       27.6477585437
  C         6.9968597010        4.6039739745       25.5269062746
  H         7.7339531756        6.0287165946       26.9842269400
  H         8.6183009867        5.9356686534       25.3306897515
  C         6.7270401278        3.2439264693       26.2006303199
  C         7.4938044513        3.8516132457       24.2891378753
  C         5.7138357465        5.5483300969       25.3486887593
  C         7.0718906995        2.1047448659       25.5074530421
  C         6.1125223645        2.8787553954       27.4563341859
  C         7.6225612661        2.4953739964       24.2984639347
  C         7.8519971572        4.5112399138       23.1386930075
  H         5.9898760945        6.3453403522       24.7308027650
  H         5.5267342498        5.9988855921       26.2676998897
  C         4.4257584693        4.8473722980       24.8596157308
  S         6.5931096507        0.6376952057       26.2447074375
  C         6.0494303420        1.5146264967       27.6158310627
  H         5.8632549375        3.6210652992       28.1674370223
  C         8.0078135814        1.8863649740       23.1074004820
  H         7.7415142708        5.5729028422       23.0983038941
  C         8.2660272486        3.8635537579       21.9689979772
  H         4.7156433779        4.6627359992       23.7765973927
  H         4.2227972705        3.9111763892       25.2960551884
  C         3.0983575591        5.7171463595       24.9981510696
  C         5.5731563820        0.8417712254       28.8845549569
  C         8.3895106459        2.5398772181       21.9326636885
  H         7.9903208206        0.8188810287       23.0731437074
  C         8.5569381198        4.3399095953       20.7175886434
  H         2.2992035931        5.0506176691       24.6171376346
  H         2.9861970639        6.6795636456       24.4555532292
  C         2.7943351328        5.8858569911       26.4517234237
  C         5.5278921504       -0.5209176174       29.1383045158
  C         4.9597918184        1.6977923046       29.9331352597
  C         8.8208987822        1.9604518344       20.6829741738
  C         8.9414310562        3.2830633220       19.8940006126
  S         8.7765120858        5.9003640388       19.9650184719
  H         2.0170246109        6.6268888365       26.6747793692
  H         3.5852676468        6.3474056616       26.9646659505
  C         2.1640068491        4.6597269362       27.1085466722
  N         5.8863755146       -1.5241859939       28.2088672358
  C         5.3002724578       -1.0317577692       30.4259309710
  C         4.6464366856        1.2168957905       31.1713721165
  H         4.7674009121        2.7118956192       29.6587406326
  C         7.7417504573        1.0528121958       20.0320912465
  C        10.1872095305        1.2490266790       20.7794246749
  C         9.2971625510        3.7252916308       18.6532223337
  C         9.3660387038        5.0833179113       18.5928682151
  H         1.7134637366        4.0741078956       26.3069660847
  H         2.9786554820        4.0693649874       27.5369939881
  C         1.0854985764        4.9063042182       28.1567517248
  S         5.6458363517       -2.9076532355       28.9692012762
  N         5.4778990047       -2.3684024828       30.4677220360
  C         4.8752950701       -0.2096658709       31.4948602235
  H         4.0989469313        1.7940934507       31.9176703595
  H         7.5792773521        0.2029607879       20.7385633270
  H         8.1742854408        0.6076886810       19.1932055161
  C         6.4724851090        1.8475788765       19.4891776706
  H        10.5841734650        0.9240138160       19.8005937810
  H        10.0700196918        0.3641812127       21.4625559665
  C        11.1874888997        2.1614628791       21.5265685582
  H         9.5182088298        3.0435969015       17.8285527493
  C         9.7247111878        5.8441645706       17.3513908894
  H         0.6738232613        4.0043970375       28.6523571605
  H         0.2109258541        5.4988572129       27.8133331491
  C         1.6019481033        5.5871392843       29.3860001295
  C         4.7605047064       -0.8135532974       32.7402659180
  H         6.7510861353        2.6801144159       18.8782557005
  H         6.0005101702        2.3397017010       20.3494678189
  C         5.4283606414        0.9868548537       18.8125302034
  H        10.9704637461        2.1021035990       22.5434118323
  H        11.1004481880        3.1139484722       21.0581332661
  C        12.6096826252        1.4506872657       21.3484562012
  C         9.6837542957        7.2508989617       17.1900642326
  C        10.1388073281        5.0422473862       16.1674023260
  H         2.5088961778        6.0688326341       29.0481847443
  H         0.8741727363        6.2753042398       29.7024742980
  C         1.8860354201        4.7121751197       30.5704452067
  H         4.8820377774       -1.8334537626       32.6876007479
  C         4.4529874226       -0.2971330891       33.9442068499
  H         5.0230510297        0.1923588483       19.5229970719
  H         5.8793907699        0.4841006784       17.9524121886
  C         4.2918419058        1.8172565292       18.2197533199
  H        12.5737403355        0.4851832846       21.8559382586
  H        12.7442505178        1.0909685290       20.3097413118
  C        13.7449522288        2.3618847509       21.7344850704
  N         9.3817790709        8.1886548519       18.2123686455
  C         9.9788789658        7.8471302817       15.9703982968
  C        10.4110846456        5.6632988375       14.9393587699
  H        10.2605625303        4.0297536771       16.2770627128
  H         2.3049086059        5.3811140456       31.3360805778
  H         0.9626762712        4.3323363074       31.1009874155
  H         2.6100106863        3.9652556197       30.4155678249
  S         4.1595688317        1.3320959958       34.3913353759
  C         4.3701383077       -1.2823474605       35.0598454410
  H         4.4202459209        2.8683522115       18.4427829896
  H         4.4819145265        1.8075886063       17.1485367126
  C         2.8845677712        1.2560209441       18.5447526879
  H        13.4655950869        2.5776839166       22.8204255749
  H        13.6517341610        3.3831350277       21.2410416922
  C        15.0769600616        1.5649013966       21.5792083470
  S         9.4863970179        9.7143659677       17.5297021892
  N         9.9491626020        9.2632751580       16.0479386083
  C        10.3656882428        7.1380756693       14.8134083505
  H        10.7156428048        5.0408687826       14.1292857213
  C         3.8087854476        0.6599338948       35.9661767537
  N         3.9295486537       -0.6815710113       36.1777919703
  O         4.5352178220       -2.4418892454       34.8818441151
  H         2.1842956892        2.0657197518       18.1796305418
  H         2.8567019237        1.1402725096       19.6637958983
  C         2.5719273259       -0.0216533881       17.8117958456
  H        14.9739782095        0.5929460334       22.0979926206
  H        15.1751317349        1.3129204860       20.5595797427
  C        16.2261976143        2.3729476696       22.0351186941
  C        10.8052506722        7.8652251101       13.6453670060
  S         3.2919208350        1.5938201055       37.3611031019
  C         3.7935274464       -1.4423629876       37.4502044084
  H         2.5267663628        0.1477873056       16.7383432182
  H         3.4657501808       -0.7195341765       17.9437028248
  C         1.3320092907       -0.6897683090       18.3779089456
  H        15.9235942980        3.4173914239       22.3300015219
  H        16.9536554866        2.3748208843       21.1835053830
  C        16.9941091567        1.7035687384       23.1394882432
  H        10.8231769547        8.9411955663       13.7707980078
  C        11.3681899165        7.6238310527       12.4220526116
  H         2.9521998727       -1.2219871505       38.1221738555
  H         3.5652245064       -2.5301115881       37.2235390253
  C         5.0947890841       -1.4254118127       38.1993618259
  H         0.3349253403       -0.2857096959       18.0269981247
  H         1.3301087127       -0.6249046596       19.4933212699
  C         1.2749108003       -2.1315194659       17.9513930429
  H        17.2404120471        0.7461381954       22.5962799259
  H        17.9369526809        2.2257785516       23.0819006247
  C        16.2848491864        1.5360248900       24.5747819484
  S        11.7963394356        6.0077242064       11.9124675396
  C        11.6287858637        8.7252756361       11.4852264706
  H         5.2481998517       -0.3951003901       38.6456855042
  H         5.0652085626       -2.1132284000       39.0273811918
  H         5.9263866851       -1.7639310949       37.5423268230
  H         0.4200746375       -2.5757038218       18.4766875479
  H         2.0617012036       -2.7687318752       18.3426689337
  H         1.0995287510       -2.2282442446       16.8348678446
  H        15.7741710788        0.5985012706       24.5522582832
  H        15.6170370948        2.4117581290       24.7356656710
  H        17.0567967527        1.5411348941       25.3404347788
  C        12.1730797116        6.7916386860       10.3556590642
  N        12.0359740787        8.1645007682       10.3299345786
  O        11.3402076909        9.9104974199       11.6440523478
  S        12.8691244293        5.9310330272        9.0021469111
  C        12.3689256050        8.9336291039        9.1873862067
  H        12.6224499457        9.8916262425        9.5033936762
  H        13.1914930060        8.4579684008        8.6542941970
  C        11.1910831600        8.9335423091        8.2250297331
  H        11.1690841902        8.0933218226        7.5573258376
  H        10.2640444689        9.0551348348        8.8459316520
  H        11.3912592676        9.8024275060        7.6635017440
  H         3.4526654530        3.8613530605       12.2633450104
  C         2.5994944420        3.1959815082       12.4648676546
  H         1.8784825263        3.8989727228       12.9133783492
  C         2.1614080985        2.7607997899       11.0729601857
  C         2.7972786612        1.9954295948       13.4414242723
  C         3.2322466049        2.7554548699        9.9997102599
  H         1.3642672746        3.4615155041       10.6841760417
  H         1.7304966052        1.7601011774       11.1663334373
  H         1.9215652107        1.5902615364       13.7621984395
  H         3.3529401606        2.3820139613       14.3136112221
  H         3.4812793727        1.2468746569       13.0027776036
  C         4.2694738230        1.5978353923        9.9715211179
  H         2.8312501487        2.9315529508        9.0487280186
  H         3.7073187094        3.6803890387       10.1063705698
  C         5.2084791996        1.6208594228        8.7018390428
  H         3.7821449924        0.6277603538        9.9324555636
  H         4.8043939111        1.6225157804       10.9406563003
  C         6.3634312530        2.6750080026        8.7778132312
  H         4.7027071692        1.8693235140        7.7798371434
  H         5.6443456803        0.6520175208        8.5643200634
  C         7.6940599504        1.9477720387        9.2218606010
  H         6.4989770740        3.3084139758        7.9103355273
  H         6.1826182710        3.4444345131        9.4547303336
  C         8.9545723371        2.8363014380        9.4437879224
  H         7.9182993792        1.3194732574        8.3706431498
  H         7.4655583375        1.1576935930        9.9692305615
  C         8.6800714223        4.2050971298       10.1713829867
  C         9.3279907647        3.5533633024        8.1842890278
  C        10.0755211743        1.9563061441       10.1106490047
  C         8.8481506995        5.2889094288        9.3511649450
  C         8.3616486014        4.6252864228       11.4770654683
  C         9.2414994291        4.8830628822        8.0694213597
  C         9.7647707070        2.9611528641        6.9828659937
  H         9.6114391189        1.4301687504       10.9457707326
  H        10.4479555575        1.2767426020        9.3614908707
  C        11.3182036513        2.6925366606       10.5759214960
  S         8.3802506507        6.7680270745       10.0638711175
  C         7.9572818148        5.9445592837       11.4543102617
  H         8.3248677549        3.8610354631       12.2586525977
  C         9.4655526433        5.4694968053        6.8802405355
  H        10.0305309262        1.9081733996        7.0867465703
  C         9.9645167477        3.5362116427        5.7710262489
  H        11.1919105358        3.7059357922       10.9746992695
  H        11.9398862547        2.8136154619        9.6432218224
  C        12.0954444341        1.8714505474       11.5711749135
  C         7.4376425122        6.6511024397       12.6652540497
  C         9.8546830234        4.8849431995        5.6876250711
  H         9.5312535457        6.5367555650        6.8077925167
  C        10.3812327567        3.1966329436        4.4996949102
  H        13.1194139076        1.9973406692       11.3906965829
  H        11.8705762325        0.8533231445       11.4196081773
  C        11.7045656113        2.3288003031       12.9631193294
  C         7.3700007352        8.0424013480       12.8901524472
  C         6.8665712554        5.8483214299       13.7684677841
  C        10.2229194840        5.6285243089        4.4126394399
  C        10.6230935082        4.3270050078        3.7082049879
  S        10.7616394499        1.7204932277        3.7079488414
  H        12.0255996974        3.3381749547       13.0060273628
  H        10.6944858096        2.5014570292       13.1139782709
  C        12.2527073649        1.3863928429       14.0687204839
  N         7.7410041532        8.9816377289       11.9444417905
  C         7.0950795362        8.5972723668       14.0849709462
  C         6.6057482701        6.4445305341       14.9926435572
  H         6.7181485619        4.7481065558       13.7759185658
  C        11.4864538061        6.5808348862        4.6988975904
  C         9.0071295980        6.2901309389        3.7147938615
  C        11.1401618438        3.9636915426        2.4516853418
  C        11.2594434289        2.6072009930        2.3043699323
  H        13.3323488254        1.2123803275       13.7460315222
  H        11.6706881584        0.4916489843       13.9502225311
  C        12.1674707349        2.0891073292       15.3067190039
  S         7.6365615008       10.5070663396       12.5915814755
  N         7.3371652084       10.0117900337       14.1126415957
  C         6.8299687174        7.8386785741       15.2534268011
  H         6.1008591872        5.8102698772       15.7332310443
  H        11.2500237902        7.4582170104        5.3967713603
  H        11.7429149702        7.1037052419        3.7393046375
  C        12.6552945555        5.8235649176        5.2976935968
  H         8.5259006880        7.0135390152        4.3856026512
  H         9.2217711204        6.9101371876        2.8121204120
  C         7.9685266192        5.2542137511        3.2653599263
  H        11.5225396585        4.6829589024        1.7899490426
  C        11.6201665270        1.9093866478        0.9868765914
  H        12.4721555927        3.1237523282       15.1574873729
  H        11.0845966069        2.1669948394       15.4620359695
  C        12.9114933913        1.5515234146       16.4974106678
  C         6.5444170689        8.4069777085       16.5108142662
  H        12.3337440755        5.4729035635        6.2994816578
  H        12.8749730703        4.8961455781        4.7621954995
  C        13.9331728850        6.6107664470        5.4948139602
  H         7.7899726392        4.3693068532        3.9189857402
  H         8.3372845320        4.8799564981        2.3015604601
  C         6.5795034425        5.7034815124        2.8506363454
  C        11.6489424036        0.4910173199        0.7854981154
  C        11.9453924625        2.7429206985       -0.2065903946
  H        13.9636577333        1.7301839719       16.3497841479
  H        12.7723533630        0.5256580862       16.7688443579
  C        12.6232031832        2.2775352511       17.8193808015
  H         6.4899536923        9.5460063548       16.4744901146
  C         6.1767409377        7.9012605272       17.7649163914
  H        13.6878786233        7.2669184448        6.3594637988
  H        14.1977570691        7.1579811028        4.6351449570
  C        15.1300455332        5.6881655363        5.8351468255
  H         6.0079791732        4.7446033628        2.8400305092
  H         6.2338780750        6.3134445532        3.7352703999
  C         6.5044037440        6.3254531732        1.4887748844
  N        11.3567667446       -0.4991697015        1.7159738390
  C        11.9992332164       -0.0646911553       -0.4739939343
  C        12.2583332010        2.1501778235       -1.4413903216
  H        11.9079293572        3.8232559930       -0.1109758470
  H        13.3975761984        2.0210764237       18.5613153192
  H        11.6333157505        1.8282894496       18.1250995425
  H        12.5220008403        3.3617246940       17.6063559730
  S         5.9625675408        6.2128091600       18.0874535964
  C         6.0950973936        8.7617093547       18.9833520406
  H        14.8486079311        5.0682651265        6.6477349881
  H        15.3327178497        4.9929474493        5.0753601238
  C        16.3616668794        6.4472601265        6.2553058049
  H         6.7068936583        5.5856558970        0.7302726277
  H         7.1480731588        7.1443944977        1.3687528145
  C         5.0521938078        6.7793768765        1.2213651800
  S        11.4806335646       -1.9193629718        1.0371196273
  N        11.9910293157       -1.4520381473       -0.4515987273
  C        12.3578400468        0.6807509603       -1.6478245185
  H        12.5619165818        2.7671591458       -2.3096138231
  C         5.8039007516        6.6728767618       19.8044929348
  N         5.8135372465        8.0258546379       20.0513017000
  O         6.3845014792        9.9480661973       19.0449393361
  H        16.8991775368        6.8350382632        5.3930569397
  H        16.0969498778        7.2700423078        6.8235875005
  C        17.1621135746        5.4079073860        7.0332510923
  H         4.8567711329        7.0424209585        0.1961672890
  H         4.4058213229        5.9254727270        1.4442289026
  C         4.5749250242        7.9749757096        1.9903160741
  C        12.7824609897       -0.0541110489       -2.8042597030
  S         5.3719490220        5.6301132381       21.2371600597
  C         5.8100456061        8.5678444818       21.3834340573
  H        16.5503393450        5.0896259653        7.9100858411
  H        17.3078352187        4.4964447397        6.4074398893
  C        18.5343630976        5.9857866675        7.4270629557
  H         5.4455525001        8.4648529331        2.4063804271
  H         4.0056807786        7.6723501843        2.9108625595
  C         3.8049600985        8.9592836119        1.1659947831
  H        12.4466647605       -1.0710809677       -2.7466840329
  C        13.4309117091        0.3094591771       -3.9466233173
  H         5.0899421058        8.1170039884       22.0947420998
  H         5.4906619500        9.5770426652       21.2501949090
  C         7.2499824934        8.5969907990       21.9599273390
  H        18.8752448317        5.2867744913        8.1924414893
  H        18.5988559751        6.9930112031        7.8700550564
  C        19.5110342672        5.9456148161        6.2692042974
  H         4.2196521996        9.0239939651        0.1545745747
  H         2.7839714121        8.5493959528        1.0458782490
  C         3.7436985120       10.3866847267        1.7415403895
  S        14.0954200067        1.8478480335       -4.2672105886
  C        13.4754534051       -0.7056643164       -5.0196209291
  H         7.5050283135        9.6397849935       22.1923073123
  H         7.9769541313        8.1552743336       21.3137604691
  H         7.3508576097        8.0743979113       22.8811194545
  H        19.0325597293        6.4428945886        5.4472830038
  H        20.4252250838        6.4999357974        6.5168799976
  H        19.7323122725        4.9932513822        5.9117098043
  H         2.9974023611       10.4221997794        2.5428372523
  H         4.6127227531       10.8643284679        2.1485507092
  H         3.2511284185       11.0761475455        0.9753413861
  C        14.2626681691        1.2055128694       -5.9033605642
  N        14.1309546401       -0.1557543828       -6.0486165537
  O        13.0669592568       -1.8950442450       -4.8755945016
  S        15.0802786566        2.0593052997       -7.2335674102
  C        14.2432172261       -0.8830303609       -7.3292821983
  H        14.5393622447       -1.9198733826       -7.0214778994
  H        15.1273802783       -0.5622503601       -7.9675371716
  C        12.9074121445       -0.8396229009       -8.0879538304
  H        12.2477025151       -0.0463519850       -7.6781027288
  H        12.2690937980       -1.7119861497       -8.0150756489
  H        13.1047836603       -0.5885736894       -9.1499153194
