352
 i =    16200, time =     8100.000, E =       109.7392104291
  H         9.9076294989        6.1477440832       31.8235784335
  C        10.9889522873        6.0074088356       31.9495917238
  H        11.2563362082        7.0560735723       32.0292147462
  C        11.6448343568        5.6351238264       30.6375000634
  C        11.2625084107        5.1991591917       33.2547415381
  C        10.7848219871        4.7941372938       29.7230974686
  H        11.7126110258        6.5812489170       30.0949161114
  H        12.6616594893        5.3195201195       30.8255135356
  H        12.3213634534        4.8737374424       33.2722267719
  H        11.0919547427        5.7416834531       34.1977601661
  H        10.7570966791        4.2089271016       33.2204019138
  C         9.9601256806        5.5107570548       28.6785250877
  H        10.1525759961        4.1540274478       30.3431974994
  H        11.4366918341        4.1215348602       29.2422216994
  C        10.5618760525        5.2542332595       27.2614793915
  H         8.9342747146        5.2914770329       28.6717895442
  H         9.9729905166        6.6354611503       28.8564141398
  C         9.5564930064        4.7175416795       26.2103826219
  H        11.2618195540        4.4248459602       27.2983090707
  H        11.0459114193        6.1745989311       26.9541315356
  C         8.3838354999        5.6256051282       25.9150836553
  H        10.1149464361        4.6329789834       25.2936252488
  H         9.1829049477        3.6784857801       26.4439270025
  C         7.2105763304        4.9674782884       25.2794846946
  H         8.0108056844        5.9724154553       26.8402895830
  H         8.5901725253        6.4710267929       25.3331405108
  C         6.8421525893        3.6759461954       25.9761224929
  C         7.6100567824        4.1715210599       24.0660241148
  C         6.0733168784        5.9145626931       25.0285385658
  C         7.0247979251        2.4822548654       25.2187157190
  C         6.4179006126        3.3381947220       27.2822295409
  C         7.4604936759        2.8166556436       23.9686941873
  C         8.0703434952        4.7384544213       22.8810226074
  H         6.3978885029        6.7470777808       24.2782183868
  H         5.7859031854        6.4974924517       25.8931841034
  C         4.7166453527        5.2219366270       24.5690231807
  S         6.7755295142        1.0870987611       26.0951724825
  C         6.2865477712        1.9890074063       27.4893834237
  H         6.1881879788        4.0502955352       28.0557561033
  C         7.8130261260        2.1230676159       22.8341543224
  H         8.0920837986        5.8184692765       22.8342009411
  C         8.3696277273        4.0372142583       21.7154823108
  H         5.1421540201        4.6486449765       23.7067719857
  H         4.4825440169        4.5264588766       25.3355032235
  C         3.6060724396        6.2055570599       24.2339394062
  C         5.8240584188        1.3943413559       28.7673110057
  C         8.3344874845        2.6462703448       21.6382828988
  H         7.5376278334        1.0434634337       22.7823131703
  C         8.7796898679        4.3784023977       20.4380437146
  H         2.8800612417        5.7786595446       23.5570886805
  H         3.9922099998        7.0177582243       23.6886205507
  C         2.7815163228        6.6586223556       25.4263716941
  C         5.8185436224        0.0170160521       29.0485191728
  C         5.5570538859        2.3254194578       29.9584522530
  C         8.7647433172        1.8468716002       20.4146956929
  C         9.0442230856        3.2538901154       19.6852742095
  S         9.1717575538        5.8434574255       19.6297969117
  H         1.9409102372        7.3685743955       25.0846984059
  H         3.4064464540        7.4341130495       26.0000659197
  C         2.2484318394        5.6174680784       26.4311879401
  N         6.0034574152       -0.9900277970       28.1084871987
  C         5.5028904104       -0.4531757962       30.2683155543
  C         5.2717726159        1.8611680196       31.2375183898
  H         5.4760873369        3.3840306238       29.8275980486
  C         7.6251837000        1.0323750878       19.7244499434
  C        10.0875626096        1.0086944952       20.6856369069
  C         9.4918038064        3.6513001944       18.4344581618
  C         9.5597306658        4.9899552080       18.2299146393
  H         1.5564336115        4.9093483579       26.0426345322
  H         3.1573326312        5.0877900538       26.6672854811
  C         1.6175236119        6.2802813162       27.6404296775
  S         5.9903154021       -2.4616871831       28.8659874274
  N         5.6151975236       -1.8684532858       30.3701277906
  C         5.2569232535        0.3762011452       31.4072812245
  H         5.1844056501        2.5752979898       31.9824962210
  H         7.2416913013        0.2813996077       20.3992126916
  H         8.0454742051        0.4180107245       18.8782255553
  C         6.4165110991        1.9237718264       19.1586546927
  H        10.3853386714        0.2435893147       19.8728804657
  H         9.9110218100        0.2750537916       21.4972371540
  C        11.2236449383        1.9431062185       21.0170511203
  H         9.6890658413        2.8402341965       17.7635019149
  C         9.9108469233        5.7578031018       17.0017535113
  H         0.8013682700        6.9821130637       27.4124792619
  H         2.5334408389        6.9208029786       27.9811173779
  C         1.1196464958        5.3011890387       28.7330022682
  C         5.0143744921       -0.3266486145       32.6413909621
  H         6.7541684174        2.5665481336       18.3234766354
  H         6.1552562625        2.6848818386       19.8761287973
  C         5.2647711532        1.1250491577       18.6624293667
  H        11.2149104166        2.2425216458       22.0533208542
  H        11.2908395649        2.9239150695       20.5339559833
  C        12.5877038407        1.1698230563       20.7684807674
  C         9.8932412558        7.1451894713       16.8455363734
  C        10.2907064044        5.0328234862       15.7521285955
  H         0.1259174456        5.3367303014       28.5747978983
  H         1.5500712877        4.3800159500       28.7694257335
  C         1.2556794235        5.7400334099       30.0759091596
  H         5.1318539691       -1.3229110249       32.6782941153
  C         4.6794195830        0.1299241088       33.9449269708
  H         4.9291210141        0.4221500047       19.4459836609
  H         5.5429763919        0.5205330246       17.7817858980
  C         4.0622950913        2.0437643720       18.2899846456
  H        12.6159546824        0.2275360839       21.3622712978
  H        12.6568566766        0.9490715539       19.7411460954
  C        13.9665721803        1.8067195863       21.0899021885
  N         9.6958194309        7.9753969241       17.9124008000
  C        10.2641910900        7.8858676281       15.7414374470
  C        10.7415215345        5.7229437252       14.6236188653
  H        10.3472780789        3.9930901279       15.7050654763
  H         0.7920822938        5.2107920609       30.9286568586
  H         2.3194700494        5.6783885120       30.2583874076
  H         1.2134308742        6.7702081026       30.2020853768
  S         4.4001156840        1.7856800001       34.3474203262
  C         4.3069952218       -0.8641435074       34.9249260076
  H         4.2516856465        3.0696208171       18.6905416317
  H         4.1221092876        2.0759600546       17.1858579769
  C         2.6821780167        1.4605162438       18.4922463749
  H        14.0649073227        2.7688531171       20.5917804744
  H        14.8185263176        1.2103323300       20.7388317464
  C        14.3368785323        1.9191078176       22.5599553710
  S        10.0609972482        9.4989783592       17.5346147769
  N        10.3251634806        9.2289396608       15.9543802757
  C        10.7551865547        7.2652528255       14.5680520364
  H        11.1180351280        5.1536813770       13.8156135749
  C         4.0922614083        1.1477104276       35.8912256044
  N         4.0701081798       -0.1723461495       36.0235951041
  O         4.5513572984       -2.1245864695       34.8093058845
  H         1.9255264338        2.1551294965       18.3635723721
  H         2.6072521232        1.1056520323       19.5334616551
  C         2.4360202181        0.2255977222       17.6198118472
  H        13.4436483692        2.0759615104       23.1918012696
  H        14.5737888662        0.9263731272       22.9093117340
  C        15.2671384029        3.0044465472       22.8477447534
  C        11.0110266309        8.0956644204       13.4184834137
  S         3.8460905505        2.1320853890       37.3118284856
  C         3.8930213635       -0.8342683196       37.3348665238
  H         1.6687897328        0.4159537509       17.0129324614
  H         3.2388012286        0.0916353898       16.9158615739
  C         2.1239122178       -1.0479517658       18.4751396527
  H        15.1269394394        3.4012297864       23.8114356887
  H        15.0268380088        3.8284916030       22.1212669547
  C        16.6446594527        2.4264606746       22.7974951236
  H        10.3759498780        9.0530877032       13.4568520709
  C        11.4649951025        7.7334685746       12.1932245959
  H         3.1404819882       -0.3003988421       37.9148550851
  H         3.4557235079       -1.7811200142       37.2374170377
  C         5.1469167042       -0.8692572554       38.2248611891
  H         1.2428316390       -0.7888625938       19.1902738385
  H         2.8870599562       -1.3614490254       19.1865225577
  C         1.6348257888       -2.1729487362       17.5114482164
  H        17.1282913199        2.4164282938       23.7381083836
  H        16.6114694038        1.4142722702       22.3970081703
  C        17.4952903614        3.2836794537       21.9025329848
  S        11.9934584501        6.1753956557       11.7612530953
  C        11.5646977489        8.7964896105       11.1863606281
  H         5.4541527669       -1.8645977880       38.2425930432
  H         5.8994803796       -0.3130744591       37.6815343318
  H         5.0199048849       -0.5584909097       39.2747104415
  H         1.0688954373       -2.8678428225       18.1256298877
  H         2.4272186784       -2.6158479522       16.9348094873
  H         0.9562681633       -1.7190890242       16.7635836676
  H        17.2888585513        3.0188865934       20.8530297633
  H        18.5489461188        3.0204405965       22.1138365085
  H        17.1390119655        4.3280006826       21.9482805378
  C        12.3798233656        6.9677759624       10.2016216146
  N        12.2925514211        8.3023510763       10.1547627340
  O        11.1892196728        9.9394935371       11.2862521278
  S        13.1631378147        6.2165428268        8.8018802489
  C        12.4388693608        9.1257045431        8.9027812413
  H        12.3445297965       10.1475904004        9.3061670778
  H        13.4401087065        8.9912897602        8.4837483129
  C        11.1866684156        8.9179016002        8.0918825798
  H        11.3608094455        9.6586011132        7.2959454343
  H        11.1242716509        7.9356316981        7.6377075598
  H        10.1963447733        9.0074125037        8.6266013033
  H         4.8368033616        1.5146191225       12.7118614006
  C         4.2982056428        2.4252899623       12.7650269992
  H         4.9854446656        3.2510087996       12.7318526230
  C         3.3053901263        2.4849860076       11.6684558908
  C         3.6340060720        2.4836278441       14.0651598252
  C         3.9472550744        2.7114142944       10.2920655354
  H         2.6717093645        3.2737242697       11.8892404503
  H         2.5994453222        1.6320317317       11.5885377588
  H         3.0947254489        1.5999848995       14.2664751066
  H         2.8810462743        3.3012944677       14.0634841216
  H         4.3063433812        2.4848714740       14.8538277552
  C         4.7434929915        1.4739990892        9.6665800447
  H         3.2015430386        2.9239838067        9.6367328597
  H         4.5221067969        3.6070380025       10.1904020061
  C         5.4646736130        1.6756773404        8.3825018063
  H         3.9083838025        0.7641528907        9.5060946601
  H         5.3555434878        1.0916864562       10.4760757103
  C         6.7581313574        2.5092524192        8.3622151859
  H         4.8119054047        2.1164115897        7.6186657216
  H         5.6272548532        0.7072363729        7.9562521839
  C         8.0225331908        1.8661933712        8.8953916244
  H         6.8621516132        2.8731532740        7.3772979241
  H         6.4484297391        3.3076312170        8.9712752745
  C         9.1759131714        2.7848707148        9.1236785829
  H         8.4458271157        1.1930261432        8.1173796052
  H         7.7076149975        1.3688105872        9.7925552432
  C         8.7320048194        4.1062717187        9.7203526040
  C         9.6024441223        3.4482490193        7.8473895274
  C        10.3092045961        2.0419039116        9.8167798026
  C         8.9711196001        5.1862638237        8.9217029084
  C         8.1489615445        4.4782741830       10.9833599116
  C         9.5542718882        4.8050964776        7.7453207634
  C        10.1800834169        2.8720271302        6.7224972268
  H         9.8290652499        1.4631938753       10.6119403646
  H        10.6658059420        1.2826335924        9.1574333750
  C        11.3982857820        3.0120226951       10.3259262189
  S         8.4773307043        6.7270796507        9.6800199714
  C         7.9717477768        5.8288713977       11.0825688379
  H         7.9822566988        3.8267809740       11.8387425723
  C         9.8858199142        5.4555778452        6.6017691277
  H        10.3104913739        1.8009041088        6.7012869265
  C        10.5211793968        3.5313376774        5.5494613276
  H        11.1087738865        3.6998277332       11.1024368046
  H        11.6970065921        3.5401930962        9.4274741751
  C        12.5833142316        2.1340520725       10.9063792947
  C         7.5204741447        6.5149952999       12.3615593494
  C        10.4051394038        4.8419005591        5.4299829276
  H         9.7636847142        6.5172219357        6.6276705547
  C        10.9984444860        3.1939533523        4.3056812550
  H        13.4871334138        2.7587335547       10.8573640882
  H        12.7965486412        1.2732137995       10.3102882385
  C        12.3332478098        1.7814954885       12.3992453752
  C         7.5518257039        7.9119785411       12.6067656800
  C         7.3507339595        5.6429792084       13.6151254834
  C        10.7563149683        5.5983987573        4.1826780648
  C        11.1771002544        4.3061056866        3.4447235604
  S        11.1584707601        1.7205024995        3.5133432540
  H        11.7852873505        2.5862143533       13.0043431028
  H        11.7522516467        0.8432484403       12.5206242356
  C        13.5855709792        1.7989878986       13.2434390078
  N         7.8109280210        8.8786691475       11.6697389351
  C         7.4158447920        8.4041474871       13.9284569129
  C         7.1653403171        6.1944430550       14.8743367686
  H         6.9633305495        4.6187175441       13.5490671571
  C        12.0957201456        6.4858871307        4.3503708200
  C         9.5209387431        6.3812167792        3.6471289555
  C        11.6175670791        3.8998063042        2.1584025767
  C        11.5375592772        2.5320455890        2.0173770837
  H        14.0513001778        2.8034888784       13.2310018070
  H        14.3059419433        1.0847803764       12.7435552491
  C        13.3539396372        1.2732184992       14.6834345181
  S         8.0549098296       10.2503723478       12.4915450559
  N         7.6675419286        9.7451675573       13.9978645723
  C         7.1835156304        7.6433601311       15.1140391030
  H         7.0235760233        5.5255674554       15.6972584034
  H        11.9681757380        7.2711952157        5.0692369888
  H        12.1459831994        6.9079406423        3.3259705525
  C        13.3220965781        5.7022407310        4.7017463776
  H         9.1629195216        7.1797410740        4.2684458394
  H         9.8286220321        6.9278854974        2.7465448494
  C         8.3396839543        5.4247356087        3.2065676818
  H        11.9569857922        4.6554560422        1.5064170208
  C        11.8843732005        1.8351532938        0.7819379672
  H        12.4432803447        0.7219516578       14.8826303083
  H        14.0549792695        0.5645212062       15.0162777112
  C        13.2522589003        2.4970504107       15.5808921553
  C         6.9559646232        8.2807657334       16.3748104892
  H        13.0361262962        5.0226182849        5.5963831927
  H        13.6918157580        5.0842801345        3.8415319434
  C        14.4870796186        6.6353888107        5.1655989886
  H         8.2125507903        4.6585494271        3.9440990991
  H         8.8300032447        4.9809638136        2.3312076198
  C         7.0734611964        6.2156380661        2.8627085752
  C        11.9202212225        0.4213101390        0.5994391458
  C        12.0371961463        2.6121739861       -0.4599251632
  H        12.5219738899        3.1472908553       15.0717994731
  H        14.2415294916        3.0721009206       15.5448436287
  C        12.7990719096        2.1633410072       17.0238902758
  H         6.9685317958        9.4017211713       16.3565873932
  C         6.5173212789        7.7976355224       17.6190297564
  H        14.2794600596        7.0561384406        6.1765900409
  H        14.3359991467        7.5379855552        4.5842779484
  C        15.9247075596        6.0703252532        5.0863251853
  H         6.6075320357        6.5959333880        3.7908081581
  H         7.1667046472        7.0497152933        2.1361447240
  C         6.0520309806        5.2843044127        2.2840850636
  N        11.7267525603       -0.4596011196        1.6657632967
  C        12.2950251369       -0.1937938926       -0.5981314477
  C        12.2685858582        1.9502392225       -1.6898960632
  H        11.7951193840        3.6855931062       -0.4710160597
  H        11.9374539182        1.5200514405       16.9610020989
  H        12.5082621137        3.0438585311       17.6274233249
  H        13.6071651937        1.6771470666       17.6103142736
  S         6.0373954113        6.1386708841       17.9768614471
  C         6.4205099616        8.7953586335       18.6598668742
  H        15.9593484443        5.3253995955        4.3260108330
  H        16.6301945547        6.7372425975        4.6821640675
  C        16.3821379846        5.4702801538        6.3562853789
  H         5.4832627382        4.8062117334        3.0802596913
  H         6.6370477618        4.4215688199        1.8241367348
  C         5.1250317907        6.0648590124        1.3769518577
  S        11.7995492806       -1.9947156309        1.0546290809
  N        12.2290255892       -1.5906211888       -0.4451552528
  C        12.4758869007        0.5192275333       -1.7733956197
  H        12.2599291463        2.5019315980       -2.6420974120
  C         5.7977522545        6.8669788476       19.6142384245
  N         5.8063536094        8.2295361597       19.7156227608
  O         6.6443925489        9.9949840887       18.5322033870
  H        16.3508507856        6.2331987520        7.1349661560
  H        15.6188163557        4.7111505249        6.7267575561
  C        17.8229054520        4.8954717767        6.3059373470
  H         5.6744986043        6.5304501309        0.5097235494
  H         4.4187871770        5.2499507326        0.9819280413
  C         4.1413201242        7.1820711855        1.9450861207
  C        12.7634531417       -0.2784740093       -2.8808683836
  S         5.4127407130        5.9981484550       21.0303253006
  C         5.5814474472        8.8676309854       20.9385336197
  H        18.0322835302        4.0302848518        6.9365770930
  H        18.0173888925        4.5297172847        5.3053607032
  C        18.6139015426        6.1100861322        6.9042798795
  H         4.4603521992        7.6887087183        2.8157723859
  H         3.2428685986        6.6369986226        2.2124096116
  C         3.7443504902        8.3277170392        1.0560805044
  H        12.3522610355       -1.2384330806       -2.7111106646
  C        13.2711048160        0.0419191511       -4.1034027054
  H         4.8483151909        8.3091698928       21.4775696679
  H         5.2274099257        9.8871160128       20.8785416737
  C         6.8032460472        8.9425306267       21.7390344890
  H        18.5855314614        6.0712755098        7.9881559569
  H        18.2894056858        7.0687743734        6.6203421289
  C        20.1228282057        6.0008516355        6.5112406339
  H         3.8394666741        8.0531889145       -0.0406286585
  H         2.6574870054        8.5069885829        1.1355994923
  C         4.5687981967        9.5743872802        1.3531275470
  S        13.9179704364        1.5864281907       -4.5027110960
  C        13.3812486368       -0.9356704719       -5.1986243108
  H         7.6453902120        9.0467605758       21.0967618250
  H         6.9227260000        7.9831058383       22.2370359807
  H         6.8460981284        9.8939288925       22.3366004078
  H        20.7753967989        6.6526362564        7.1077993376
  H        20.5046286923        5.0508166209        6.6222748404
  H        20.2740352166        6.1055525994        5.4347312031
  H         4.2047085951       10.0037821660        2.3389506320
  H         5.6155545336        9.2700750511        1.4945958580
  H         4.5163186389       10.2704986682        0.5566730850
  C        14.1665740225        0.9908876372       -6.0737635267
  N        13.9747162842       -0.3222776104       -6.2442324429
  O        12.9191985009       -2.0739520457       -5.1618966567
  S        14.6065859920        1.9565918777       -7.4765247621
  C        14.1587855965       -1.1206509932       -7.4909052235
  H        14.2489468884       -2.1548965153       -7.2369347482
  H        15.1522100221       -0.8735860455       -7.7821663801
  C        13.0678811718       -0.8522766781       -8.4772253674
  H        12.2848538096       -0.1037001887       -8.2075306477
  H        12.5705537774       -1.7527308201       -8.6061903910
  H        13.5117549387       -0.5486399119       -9.4620584300
