352
 i =      800, time =      400.000, E =       223.9753859259
  H        12.4049344272        6.3105546769       32.4019038702
  C        11.7625339746        5.4114938122       32.2645244430
  H        12.4624557301        4.6197588013       31.8675648650
  C        10.6939470741        5.7612734514       31.1407493165
  C        11.1913579612        4.9560691267       33.6008503724
  C        11.1970923419        5.5588301839       29.7724298369
  H         9.8672824157        4.9836839815       31.2853419693
  H        10.3873885508        6.8348515380       31.3794696092
  H        11.8584043860        5.2868091139       34.4404322566
  H        10.1580661648        5.4827447065       33.6584354077
  H        11.0784003995        3.8309599630       33.5737354225
  C        10.0756347400        5.7574058878       28.7534978377
  H        11.4714485437        4.4510285348       29.5955468527
  H        11.9790115757        6.2781054506       29.3950489742
  C        10.6560697730        5.4928182983       27.3805945325
  H         9.3782615231        4.9827198439       28.8614106945
  H         9.7716481227        6.6747644849       28.8034582966
  C         9.5351657082        4.9651616970       26.3795380873
  H        11.2763780094        4.5247358238       27.4222718173
  H        11.1672217691        6.3866208842       26.8993474862
  C         8.3582834592        5.8272376259       26.2185239929
  H         9.9448078092        4.7230474150       25.4741818883
  H         9.2536838658        4.0191555488       26.9597447083
  C         7.0742287468        5.1567095206       25.5135480677
  H         7.9819255446        6.3620093471       27.1472356659
  H         8.5345230891        6.6999944506       25.5206146777
  C         6.8000917922        3.7599844619       26.2452547123
  C         7.6343113023        4.4745075293       24.3560005622
  C         5.8286743141        6.0441562356       25.3036388264
  C         7.1165658151        2.6877351447       25.4408228372
  C         6.2086755056        3.3500167982       27.4747624328
  C         7.6738080503        3.1193462275       24.2661414536
  C         8.2146734159        5.0671865481       23.2028684939
  H         6.2432065311        6.6933474677       24.5795168418
  H         5.6552195256        6.5923117567       26.2301808004
  C         4.6225487534        5.2288061857       24.8483578037
  S         6.7952549716        1.1191183406       26.1583893894
  C         6.1832789482        1.9924417753       27.5856454290
  H         5.8321731243        4.2495598056       28.1155404220
  C         8.0603195945        2.5390443514       23.0926309793
  H         8.3274208088        6.0195229139       23.2155168782
  C         8.5794843241        4.5252267374       22.0142359148
  H         4.7212823788        4.6688224019       24.0399289889
  H         4.3248503481        4.4760158409       25.6162782676
  C         3.2620328903        6.0026950222       24.7692318196
  C         5.7043049566        1.3553224447       28.8881470708
  C         8.5378486954        3.1724274835       21.9200323685
  H         7.9425439416        1.5787818080       23.0355521944
  C         9.0887840120        4.8991244771       20.8212067691
  H         2.8424460967        5.3945796203       23.9072945438
  H         3.4220522129        6.9566440062       24.2498709035
  C         2.4149989884        6.0844901698       26.0814560688
  C         5.7178193045       -0.0048259687       29.1645500884
  C         5.1571497425        2.1490503664       30.0201501302
  C         9.0049077625        2.4711261591       20.6943063699
  C         9.3151828999        3.8142162177       20.0439419416
  S         9.5546462127        6.4464560757       20.0758901580
  H         1.5353474732        6.5560369309       25.8338717757
  H         2.9295011086        6.6586155478       26.8276761917
  C         1.9136202771        4.7238152897       26.6124215252
  N         6.0818563131       -1.1003632758       28.2769931510
  C         5.4907857095       -0.5697829117       30.4185117393
  C         4.8275877088        1.6791644303       31.2053821277
  H         4.9812013314        3.2059319163       29.8207219937
  C         7.8690689102        1.7345193829       19.8838573765
  C        10.2607836293        1.7569932848       20.9533878187
  C         9.7594365075        4.2420683443       18.7946141750
  C         9.9186493189        5.6027710699       18.6706336860
  H         1.1792879639        4.3770315276       25.9556393032
  H         2.6936567960        4.0234224864       26.6265450782
  C         1.2211297506        4.9937908545       28.0538586175
  S         6.2525291838       -2.5406545305       28.9547562583
  N         5.7997988859       -1.9268399815       30.4107144263
  C         5.0053816668        0.1804846507       31.4866346824
  H         4.3834033205        2.3176716699       31.8479760292
  H         7.2417759881        1.2531436602       20.7298966465
  H         8.3560821997        0.9571446545       19.2240005333
  C         6.8638245929        2.6726164108       19.0951389052
  H        10.5142000238        1.1310956130       20.1120750669
  H        10.0402323069        1.1774686443       21.8816080939
  C        11.5378963925        2.5223213981       21.1684270951
  H         9.9898311432        3.3476815395       18.1324316123
  C        10.1781693093        6.2666181214       17.3377817030
  H         0.7753548299        4.0850273573       28.1969675058
  H         0.5734505538        5.7303426003       27.9902151359
  C         2.0470798838        5.3479487618       29.2827730054
  C         4.8523324173       -0.4768653981       32.7628990345
  H         7.4720224782        3.3875615984       18.5207095356
  H         6.3767301016        3.2045002491       19.9682732803
  C         5.8610012324        1.9688827305       18.2820931097
  H        11.3463370279        3.0097901342       22.0752046954
  H        11.6616870060        3.2611855635       20.3277036392
  C        12.7521645568        1.5831959363       21.3848829212
  C        10.2952201489        7.6791129607       17.1149109926
  C        10.2378734604        5.4693778440       16.0548189801
  H         2.8168002512        4.7835037922       29.4554461280
  H         2.3468085412        6.3425416548       29.2432581772
  C         1.1876629655        5.2984519819       30.5590868785
  H         4.7356338413       -1.6129649514       32.8403519072
  C         4.6109318236        0.0212278688       34.0009355862
  H         5.3281043359        1.1797915334       18.8169793378
  H         6.2749313105        1.6577397727       17.3487176550
  C         4.7150493660        2.8687387683       17.8271390057
  H        12.5744711225        0.8812708523       22.2848684638
  H        12.9283693315        1.0695266718       20.3920570049
  C        13.9208883417        2.4935651552       21.7701343461
  N        10.1825399370        8.7760989855       18.1114019591
  C        10.5106986264        8.2501828611       15.9040356751
  C        10.4609391994        6.0167003476       14.8822720424
  H        10.1519970599        4.4025496019       16.1041456146
  H         1.7580739669        4.8860777788       31.3264139261
  H         0.9638111954        6.2837969496       30.9469317317
  H         0.3043190300        4.6683195174       30.4618311011
  S         4.2451973900        1.6490013892       34.4421373919
  C         4.4869343660       -0.9898860918       35.0685212311
  H         4.8123214068        3.8142279105       18.4266969831
  H         4.9253308598        3.2090325246       16.7400099473
  C         3.2899796009        2.1301367661       17.9922806374
  H        13.5994036914        3.2029128406       22.3834906885
  H        14.5104909376        2.9612191625       20.9973792502
  C        15.0851649364        1.7521286732       22.6236584880
  S         9.9159273101       10.1419467372       17.3818178594
  N        10.4409875074        9.6800995875       15.9210324711
  C        10.7089294855        7.5384122184       14.7322440144
  H        10.4356584016        5.3642703632       14.1392730911
  C         4.1086690986        0.9853202167       36.1444187308
  N         4.1397095647       -0.3359691054       36.2276110696
  O         4.5905744088       -2.2218324259       34.8974139570
  H         2.6699001751        2.9546036881       17.5039373291
  H         3.0726012598        2.1729161423       19.0531561281
  C         3.1287162484        0.8557977588       17.3065033513
  H        14.6451927547        0.9950290422       23.2101278901
  H        15.7418147598        1.1746853085       21.9550151372
  C        15.9681584771        2.5922625220       23.5174600062
  C        10.9225128889        8.2174608196       13.5575707934
  S         3.4905723223        1.7664861206       37.5466421502
  C         4.0533305862       -1.2425271987       37.4109710547
  H         2.6576152563        0.9891675183       16.4119772641
  H         4.0473561951        0.5297481813       16.8843055053
  C         2.5276601323       -0.2686376589       18.1964762723
  H        15.3002579942        2.6927075911       24.4319211877
  H        16.1352111279        3.4847876206       22.8358730477
  C        17.4034601951        2.0256748076       23.6949447291
  H        10.7953969019        9.2843122975       13.5898813723
  C        11.3075334746        7.8634528249       12.2773658029
  H         3.2717582081       -0.8218423678       38.1653855348
  H         3.7646785919       -2.2900640262       37.1016347661
  C         5.4128181945       -1.3226838381       38.0394728042
  H         1.6025399847        0.1710307881       18.7026719479
  H         3.2829647666       -0.3282021212       18.9531118177
  C         2.2740447740       -1.4947436857       17.2963103454
  H        17.9550402190        2.5511568645       24.5289777782
  H        17.2996233316        0.8844389996       24.0372987756
  C        18.2414286323        2.2259032908       22.3830790524
  S        11.7189001981        6.2462725727       11.8165428056
  C        11.5119910730        8.9549719978       11.3118896794
  H         5.8568251683       -0.2900999370       38.4249461817
  H         5.7153498794       -1.9291155658       38.9054851988
  H         6.1280003678       -1.4905629757       37.2829882297
  H         2.0482102209       -2.2805585816       18.0368726166
  H         3.1427332533       -1.7129331540       16.7025849800
  H         1.4454085609       -1.2099595196       16.7193746456
  H        19.1653705303        1.6312644084       22.3551998379
  H        18.5607561142        3.3147262693       22.3212728699
  H        17.6550684179        1.9006365742       21.4128214644
  C        12.1942488414        7.0527931067       10.2474588575
  N        12.0961632434        8.3760584810       10.1842244492
  O        11.2165810546       10.1534473189       11.4606448382
  S        12.7220409303        6.2008293661        8.7826201157
  C        12.0513772992        9.1408735570        8.9558105041
  H        12.2856392184       10.1631121282        9.4252970689
  H        12.8431635378        8.6829733282        8.3168691858
  C        10.7140599737        9.1370835743        8.3152520750
  H         9.9918253853        9.3483571394        9.0329882342
  H        10.5660298133        9.8668761244        7.5773910495
  H        10.5356054632        8.2398404357        7.8933002494
  H         4.2031920458        1.6350834792       12.5429633062
  C         3.6586963189        2.5429685379       12.6417747585
  H         4.3103271646        3.3550267045       12.4532834773
  C         2.7535534395        2.7665818387       11.3613762292
  C         2.7750704128        2.7523792736       13.8739940088
  C         3.4642620944        3.0207323651       10.0220825301
  H         2.1855206676        3.6489273605       11.5387348859
  H         2.0707154468        2.0137163081       11.2702299304
  H         2.9884346211        3.8230684732       14.1175889513
  H         2.9985167029        2.0456095319       14.6201135549
  H         1.6942828533        2.7560620641       13.6798980073
  C         4.2332747437        1.6580793355        9.6807013246
  H         2.8411926088        3.0126928964        9.1690074283
  H         4.2173764522        3.7921296535       10.1413154761
  C         5.0522932304        1.5830790597        8.4052785287
  H         3.4437096224        0.9205761550        9.7444610540
  H         4.9226242893        1.4044370320       10.4428842445
  C         6.3359468483        2.5156603689        8.3716283710
  H         4.4359419506        1.7822843823        7.4806328357
  H         5.4646624699        0.5503866848        8.1533492921
  C         7.5707678385        1.8729750013        8.7781410564
  H         6.2866941155        3.0339739946        7.4603723016
  H         5.9343428316        3.2341582051        9.1380117392
  C         8.7577232695        2.8150546505        9.0451854893
  H         7.7975956470        1.2789924973        7.8811398681
  H         7.2443194269        1.2523162813        9.6246988656
  C         8.4470059717        4.1401706367        9.7356796090
  C         9.3054869653        3.5703403109        7.8833829715
  C        10.1118974554        2.1637733804        9.7718831042
  C         8.6580865492        5.2563838136        8.9658087691
  C         7.9700704352        4.4351482867       11.0144369627
  C         9.2224990928        4.8866145535        7.7411470389
  C         9.9300349362        3.0263064285        6.7493302616
  H         9.7192992462        1.7544507424       10.7092468273
  H        10.3321853352        1.2431671673        9.1472405071
  C        11.2886987750        3.1091820265       10.0618754801
  S         8.3267430040        6.7427117936        9.7776771504
  C         7.8243028780        5.8067297981       11.1868659220
  H         7.7753180749        3.4931045048       11.7333557131
  C         9.6209400160        5.5222984709        6.6434493006
  H        10.0380529681        1.9842519976        6.6897505966
  C        10.3540330403        3.6124041686        5.6286415752
  H        11.0306090230        3.9622867844       10.5119097032
  H        11.7472627181        3.4357993310        9.1528154246
  C        12.2143878945        2.4797653183       11.0201903253
  C         7.2984334511        6.4438756953       12.4705913774
  C        10.1405983840        4.9235869463        5.4933451575
  H         9.4322848243        6.4870153936        6.5758155714
  C        10.7852219304        3.1552566326        4.4166085400
  H        13.1947262497        3.0988899629       10.9638463944
  H        12.5449993220        1.5010623164       10.7433299273
  C        11.6717028489        2.6587215326       12.4974367575
  C         7.4073876154        7.8876412272       12.7505608983
  C         6.8394863079        5.6507644612       13.6444309003
  C        10.6763786580        5.6156456201        4.2359100564
  C        10.9835427857        4.2540176887        3.6299192334
  S        11.0737696305        1.6295962008        3.6494074990
  H        11.3139891844        3.6351027611       12.6418109596
  H        11.0020567962        1.9579623026       12.6464506401
  C        12.8250127353        2.5368991612       13.4360290532
  N         7.8906868451        8.9409956316       11.8235406943
  C         7.2572866261        8.4792065653       13.9493300206
  C         6.6774681433        6.2221383094       14.8294099715
  H         6.5488965422        4.6145695650       13.4264068218
  C        11.8627238849        6.4222769973        4.4653790534
  C         9.4997926346        6.3206918844        3.5124062769
  C        11.5280398397        3.8944491055        2.3879887474
  C        11.5918498328        2.5059037251        2.2352576995
  H        13.3334215882        3.5011427419       13.6013951351
  H        13.5888126025        1.9057226226       13.0437429332
  C        12.4724506219        1.9690809188       14.7810840657
  S         8.0689598402       10.3830092300       12.4838647684
  N         7.5178212573        9.8774826719       13.9527966777
  C         6.9300923468        7.6709978378       15.1112936802
  H         6.2391125198        5.6194485896       15.5751137936
  H        11.8588042428        7.2678210720        5.3770128131
  H        12.3197605779        6.9106765838        3.5456690833
  C        13.0728199594        5.5561194822        5.0419894943
  H         9.1791346139        7.0824369005        4.2257625183
  H        10.0015592700        6.8761140440        2.6443158801
  C         8.3045027039        5.4716050177        3.0535304067
  H        11.7645873318        4.6814661214        1.6383178164
  C        11.9094134467        1.7674746898        0.9262438558
  H        11.6781903265        2.6012627265       15.2643184751
  H        12.1081884211        0.9090110714       14.7143229704
  C        13.5678490928        2.1123125260       15.8419298970
  C         6.9017231801        8.2758780881       16.3884309710
  H        12.8714487110        5.0378558330        5.9435483787
  H        13.2761468970        4.8530320985        4.3142109123
  C        14.2975939663        6.4367758898        5.2011487886
  H         7.8968938452        5.0818978349        3.9610333026
  H         8.6049899668        4.5952982057        2.4491441587
  C         7.3105738563        6.3276343531        2.2987757971
  C        11.9541047976        0.3860030604        0.8473179153
  C        12.1390121536        2.5236699433       -0.3364557148
  H        14.1603390613        3.0620189970       15.5497102058
  H        14.2527109746        1.2243907894       15.5703939047
  C        12.9848555386        2.1110027679       17.1410667544
  H         6.9929022169        9.4801379291       16.4118058846
  C         6.6673437078        7.8366680575       17.6494804354
  H        14.2148782368        7.0786673381        6.0380264996
  H        14.3613668918        6.9311852240        4.3465419697
  C        15.5499593667        5.6393056996        5.2924625718
  H         6.8251818248        7.0400844181        2.8687228731
  H         7.7687022195        6.8013870379        1.4499180615
  C         6.1594780860        5.4908750014        1.6825580219
  N        11.7963413027       -0.5665969695        1.9321302399
  C        12.2372900913       -0.3290668892       -0.3076739353
  C        12.3045477816        1.8200910879       -1.5822639449
  H        12.0910378254        3.6162486440       -0.3919367457
  H        13.6944243519        1.9417221541       17.8970148963
  H        12.2761533829        1.3596927209       17.3920928870
  H        12.4550147651        3.0204603304       17.3195996558
  S         6.3864522992        6.1582514327       18.1691447856
  C         6.6785352674        8.8522014133       18.7187804351
  H        15.3706370492        4.8023399788        5.8679181637
  H        15.8647137628        5.2668928771        4.3551595891
  C        16.7396710325        6.3567584125        5.9766081774
  H         6.2805573499        4.5806154052        2.0008044599
  H         6.4736685161        5.3800122160        0.7746809639
  C         4.8088218409        6.1443635068        1.7857892562
  S        11.7351561195       -2.0483736769        1.4419456716
  N        12.1015488052       -1.7289020834       -0.1378197437
  C        12.3829315058        0.3035402156       -1.5983731810
  H        12.2612158499        2.4821461111       -2.3771864157
  C         6.1084427678        7.0003735668       19.8266965868
  N         6.1904986579        8.2853937468       19.8855153184
  O         6.9702888812       10.0598699732       18.6294291047
  H        17.4651720399        6.8307599209        5.3181019312
  H        16.4096264852        7.0644600948        6.6798570790
  C        17.4695439163        5.2778328078        6.7393411111
  H         4.1005080593        5.6197436319        1.1474918432
  H         4.2984826574        6.0348755883        2.7453329851
  C         4.7031113843        7.6656576603        1.3171465283
  C        12.5814264949       -0.5429624652       -2.7442930442
  S         5.6270748211        6.2126750819       21.3423934087
  C         6.1378029836        9.1716688227       21.1211030230
  H        17.0310156260        4.8231679406        7.7208533185
  H        17.4843723561        4.3460397432        6.0189876128
  C        18.8433896352        5.7699881294        7.1629624288
  H         4.0297598439        7.6769225805        0.4756496155
  H         5.6183370050        8.1321919322        0.9535714642
  C         4.0487235586        8.5601328997        2.4234897716
  H        12.6414549739       -1.6084466436       -2.5639617657
  C        13.1391026485       -0.2298606155       -3.9699550208
  H         5.3019842874        8.6938616673       21.6915639661
  H         5.8973552717       10.1925645765       20.7279103072
  C         7.3875939124        9.3407668426       21.9854546618
  H        19.1139978850        5.3216128934        8.2795609745
  H        18.9726026795        6.9105860239        7.2248268885
  C        19.9335396481        5.4827403418        6.0581264963
  H         3.3742780637        7.7795581579        2.9907631430
  H         5.0080436773        8.7340395936        3.1375615075
  C         3.3942100481        9.7724695287        1.8554303504
  S        13.6456849351        1.2792717453       -4.4725514047
  C        13.1889596076       -1.3143712975       -4.9797926226
  H         8.1088209655       10.0744790821       21.5574969272
  H         8.0208314940        8.5522350504       22.0512998291
  H         7.2278959566        9.8633679932       22.9704351783
  H        20.9459770737        5.7426359818        6.3016518486
  H        19.7645771312        4.5457918195        5.7525970309
  H        19.7580241302        6.1026463136        5.2684351423
  H         2.8271484540       10.1802468305        2.6529437551
  H         4.1213385467       10.4466879949        1.5769258280
  H         2.7373586368        9.6193540747        1.0662021205
  C        13.9124970070        0.5087153510       -6.1362626384
  N        13.7556347556       -0.7579052254       -6.1238222081
  O        12.7930039707       -2.4723021221       -4.8918341435
  S        14.8901550480        1.1181878901       -7.4226955994
  C        13.9771308123       -1.6590203020       -7.2399790335
  H        13.9142625760       -2.7494946654       -7.0680132784
  H        14.8768331765       -1.6109117394       -7.8013765690
  C        12.9785290461       -1.3659931840       -8.4191887233
  H        12.2433020359       -2.0053153710       -7.9150679646
  H        13.4261103790       -1.7436927648       -9.3291780551
  H        12.5388574841       -0.3890737810       -8.3476039948
