352
 i =   120900, time =    60450.000, E =        99.4612912496
  H         9.9012443275        6.4502448077       32.4362109250
  C        10.9228615325        6.0825959004       32.5092285616
  H        11.5869660189        6.8316395098       32.8786814713
  C        11.4264537830        5.6931145031       31.1132574298
  C        10.9859797901        4.9526423447       33.5104211594
  C        10.4152748758        5.0014836400       30.3035521811
  H        11.7811923097        6.5886679556       30.7174504121
  H        12.3165816642        5.0847063578       31.1317537129
  H        10.5502920705        4.0002719398       33.1578933922
  H        11.9393519617        4.7904043303       33.9471234612
  H        10.4205532528        5.2350137150       34.4599675942
  C        11.0768353286        4.7889148901       28.8934342972
  H         9.4222843835        5.4354513866       30.1702063367
  H        10.2216332251        3.9717204312       30.6153491507
  C        10.4953431885        5.7375459054       27.7938674291
  H        12.1270044893        4.8992555123       28.9484837075
  H        11.0063115799        3.7620172955       28.5688606759
  C         9.2891213633        5.0080838470       27.1299539832
  H        11.1901337370        5.9837194665       27.0508824019
  H        10.1830397828        6.7288493083       28.1766033688
  C         8.2649182734        5.9715099780       26.4750277363
  H         9.5767415935        4.2629967895       26.3644700392
  H         8.8579711034        4.4096857894       27.8845196788
  C         7.0352581311        5.2730999197       25.8482149599
  H         7.9652389669        6.4545880190       27.3788069894
  H         8.6641904590        6.7414366316       25.8251965212
  C         6.6296765525        3.9640311132       26.5158379124
  C         7.5237857752        4.6073064598       24.5977454637
  C         5.7928490688        6.2352190682       25.6161484620
  C         6.8820646636        2.9063552867       25.7195393470
  C         6.1944073677        3.5437677818       27.8090504355
  C         7.3941534673        3.2975609228       24.5156155717
  C         8.0985323648        5.2047982106       23.4840469881
  H         6.0948646729        6.9491238820       24.8916102610
  H         5.4139510843        6.6917593293       26.5260116228
  C         4.5878277203        5.5232461138       24.8897796448
  S         6.4543743358        1.4118254919       26.3432410053
  C         6.0725924373        2.2422170901       27.8733705756
  H         6.0216220867        4.3704290967       28.5165347728
  C         7.6028919783        2.6783922535       23.3779471887
  H         8.1924265275        6.2666256302       23.4071569136
  C         8.3292463716        4.5470442042       22.2887126958
  H         4.8289590890        5.2420918047       23.8849108209
  H         4.4088254657        4.5511999002       25.3839445857
  C         3.2830187062        6.2486489744       25.0739304740
  C         5.7301200422        1.4309592018       29.0707022042
  C         8.0879626264        3.2125246374       22.1291733518
  H         7.5248923665        1.5661439201       23.3429251762
  C         8.7660647989        4.8172079264       20.9992718915
  H         2.6802684650        5.6563371091       24.3720070203
  H         3.4060249788        7.2407923272       24.6481894623
  C         2.5968054995        6.3610906646       26.5038122658
  C         5.6776921700        0.0386326141       29.2566060371
  C         5.3219570409        2.1937674440       30.3496331700
  C         8.4225059634        2.4230310035       20.9535642332
  C         8.8159794070        3.6953259059       20.1811107516
  S         9.1809700990        6.2847626849       20.2165424499
  H         1.6647366264        6.8720477545       26.2687467256
  H         3.0760167062        7.0811553750       27.2059374523
  C         2.3844638548        5.0048623019       27.2202115883
  N         6.1056286783       -0.8772546729       28.2880310386
  C         5.2955049219       -0.6488777022       30.3814235300
  C         4.8844395041        1.5744250190       31.5151313149
  H         5.4039867783        3.2049997758       30.3608016933
  C         7.1893333564        1.7361817772       20.3556525637
  C         9.6549521148        1.5647795081       21.0309820239
  C         9.2645331529        4.1234872751       18.8754079357
  C         9.4170993855        5.4406019040       18.8296288661
  H         1.9106054412        4.3203388769       26.4779397488
  H         3.3787891936        4.4542135857       27.4488570374
  C         1.3234858141        5.0490806220       28.3046988278
  S         6.0625108875       -2.4399780302       28.8304159288
  N         5.5189064129       -2.0943955202       30.2927016725
  C         4.8211072076        0.0605774211       31.5404497150
  H         4.6362037179        2.1316831867       32.3276389588
  H         6.5874745662        1.1364106565       21.0906837208
  H         7.5260659523        0.9355238213       19.7230846801
  C         6.1235396946        2.5172865952       19.5484187840
  H         9.8383692135        1.0856549190       19.9890092809
  H         9.5338679317        0.7334424402       21.6971111421
  C        10.9443036560        2.3311274464       21.4155925264
  H         9.2884416547        3.4521996709       18.0538679291
  C         9.5807765226        6.1538700362       17.5369096707
  H         0.8538149343        4.0961803054       28.3479441348
  H         0.6321154621        5.8091094701       28.0464103120
  C         1.8243377041        5.3279908460       29.7498745501
  C         4.6807189110       -0.6150786231       32.7514464272
  H         6.5075091785        2.7400475878       18.5358330140
  H         5.8725427348        3.4893516688       20.0410267335
  C         4.8734694017        1.6963519587       19.2780402715
  H        10.8276310573        2.9284266290       22.3503289649
  H        11.2576263067        3.0699402472       20.6930890572
  C        12.1238133946        1.4750475837       21.6375994794
  C         9.6962675126        7.5626244735       17.2930762974
  C         9.6923889615        5.3695139885       16.2220317941
  H         1.8833041167        6.4464026016       29.9579327215
  H         1.0638289142        5.0024496323       30.3600252646
  C         3.1214730392        4.6796962944       30.1462373770
  H         4.9660958026       -1.6403930699       32.7431645406
  C         4.2650616205       -0.3090697736       34.0493469949
  H         4.2493703695        1.7053761655       20.1515814652
  H         5.1456768949        0.6622106774       19.1372663004
  C         4.2120285556        2.0886058809       17.9462312654
  H        11.9581232977        0.8039194309       22.4240665533
  H        12.3291594671        0.8968857072       20.6964432009
  C        13.3454684960        2.4190157172       21.8722410998
  N         9.5387960645        8.5595040500       18.3100080309
  C        10.0799785986        8.1928206547       16.1311118567
  C         9.9021112808        6.0697326486       15.0194377559
  H         9.6901413799        4.3512478634       16.1749005190
  H         3.1542881756        3.5967723380       30.0168913995
  H         3.9651313989        5.1932919821       29.6791432845
  H         3.2756319690        4.8748105629       31.2146331821
  S         3.9102620849        1.2593032228       34.6354586676
  C         4.3992955338       -1.3650807445       35.0995353731
  H         4.0760906226        3.1403018143       17.8961179602
  H         4.8240636159        1.7993670909       17.1586831073
  C         2.8895703882        1.4511730026       17.7005177179
  H        13.1588766035        3.0235677038       22.7512751068
  H        13.4591133327        3.1363269308       20.9847261406
  C        14.6408844579        1.5915059461       21.8779282038
  S         9.7849200369       10.0550548441       17.7047818641
  N        10.1081727628        9.5772554484       16.1858066088
  C        10.1662865435        7.4803466421       14.9352735267
  H         9.9461333212        5.4877744245       14.1054023007
  C         3.7927342986        0.5020233614       36.1652593259
  N         4.0065243176       -0.8377148120       36.2511806127
  O         4.5990762374       -2.5348136361       34.8467692526
  H         2.2340985961        2.0283947969       17.0137320527
  H         2.2930578042        1.4983951652       18.6536469659
  C         2.8831272981        0.0053348969       17.2590396184
  H        14.7723004343        0.9993737634       22.7574821790
  H        14.6735989218        0.7660534141       21.2077159083
  C        15.9016691577        2.4822284781       21.9151092160
  C        10.6074234597        8.2591709693       13.7916152330
  S         3.3550757107        1.4030721865       37.6649905280
  C         4.1634528998       -1.6679582467       37.4373475284
  H         2.7814243729        0.0911783030       16.1475173719
  H         3.8499420038       -0.4840027175       17.5137173949
  C         1.7563191660       -0.9036436690       17.8183375830
  H        15.7936357935        3.4457976057       22.3213225458
  H        16.2993103107        2.6753035919       20.9530294063
  C        17.0188145530        1.8734522728       22.7042425004
  H        10.7650174164        9.3353871700       13.9043470152
  C        11.1152056099        7.8335683527       12.6346354712
  H         3.5137922166       -1.3860022714       38.2525304966
  H         3.8617993208       -2.7096787524       37.2432668437
  C         5.6600722810       -1.6367735000       37.8598220772
  H         0.8275760644       -0.6953476523       17.3153508184
  H         1.6298115831       -0.7291879234       18.9434208129
  C         2.0745421442       -2.3260275777       17.5190427155
  H        17.0131337346        0.8152609196       22.3586068778
  H        17.9679048008        2.3682599553       22.4044260099
  C        16.6272037054        1.8771744868       24.1622463776
  S        11.3795659341        6.2425853078       12.0796817155
  C        11.4741155044        8.8685754395       11.6360157695
  H         6.1182313645       -2.4387079483       37.3903618584
  H         6.1852189679       -0.6923836353       37.6635713326
  H         5.7533952321       -1.6634887015       38.9550733418
  H         1.2171319619       -2.9269918819       17.2792369233
  H         2.3387011653       -2.7695980564       18.5461082167
  H         2.6964419414       -2.5827264110       16.6879043720
  H        15.9378707265        1.1577057549       24.5040200630
  H        16.2512620694        2.8993408599       24.4440681242
  H        17.5438329709        1.7295031818       24.6856466652
  C        12.0904667949        6.9078901938       10.5892687598
  N        12.0300332549        8.2638787370       10.5939152092
  O        11.3289853945       10.0729215409       11.8242088145
  S        12.8137988933        5.9858997241        9.3439257998
  C        12.3933723499        9.1239633862        9.3967015367
  H        12.4700859471       10.2029972062        9.6749000290
  H        13.3995348183        8.9521275116        9.0828850843
  C        11.2362436411        8.9206117735        8.3837351235
  H        11.6442855677        8.7900215034        7.3861715068
  H        10.5262038920        8.1252279188        8.6282981478
  H        10.6722430530        9.8866670201        8.3641149522
  H         4.0293025792        3.4149605565       13.0665663413
  C         3.2175566963        2.7883736084       13.0737369947
  H         2.3224247430        3.3162821967       13.5430778110
  C         2.8420441607        2.4144991931       11.7317416423
  C         3.7752381565        1.6073701678       13.9073947682
  C         4.1100880216        2.4733762434       10.8488767570
  H         2.1069351110        3.1748934196       11.3886913202
  H         2.3858571650        1.4127908168       11.6894313480
  H         4.5313037728        1.0754420794       13.4060499470
  H         3.0225429016        0.8873592602       14.2056581872
  H         4.3102919967        1.9821789940       14.7996448707
  C         4.1217690230        1.4289717899        9.7796934226
  H         4.2075030382        3.4730547077       10.4470317942
  H         4.9993212442        2.3492657081       11.4617375273
  C         5.0740740547        1.7365205782        8.5890558183
  H         3.1800059284        1.3050079299        9.3515805773
  H         4.2714706559        0.4241297425       10.1521616004
  C         6.2993466378        2.5756296136        8.8900563163
  H         4.6043263704        2.3730310141        7.7709797817
  H         5.4471080966        0.8380625171        8.0905281912
  C         7.5579439740        1.7901170168        9.3078589483
  H         6.4167270738        3.0521507314        7.9418239343
  H         6.0553302777        3.2966785876        9.6228023387
  C         8.7955415927        2.7609962025        9.5092264658
  H         7.6865546174        1.0549651061        8.5328687959
  H         7.3584821992        1.3020567897       10.2430091457
  C         8.5134012857        4.1351291394       10.1437638599
  C         9.1056594928        3.4453923472        8.2066851143
  C        10.0278841128        2.1034219700       10.1884167703
  C         8.6573908858        5.2338382768        9.3306831206
  C         8.0481193767        4.5616073538       11.3923890452
  C         9.0629077268        4.7964219448        8.0881465914
  C         9.5382139773        2.7830540335        7.0210192413
  H         9.7273217239        1.5949093846       11.1216815330
  H        10.2347080234        1.2658259878        9.5673661835
  C        11.3145373249        2.8772400469       10.4048641221
  S         8.2252907663        6.7709591137       10.0716800963
  C         7.8459794202        5.9010093922       11.5188439729
  H         7.9184830805        3.8262352664       12.1764641728
  C         9.4177902850        5.3471353112        6.9116542002
  H         9.7711095963        1.7229103611        7.0553461598
  C         9.8501506560        3.3962140856        5.8387575752
  H        11.0619325318        3.8918383449       10.8617374167
  H        11.8341280666        3.0183080469        9.4459133624
  C        12.3019391498        2.2646754269       11.3983185275
  C         7.2432570265        6.5146591605       12.7262956804
  C         9.8223114217        4.7301303166        5.7085736249
  H         9.5137753527        6.4296326880        6.9603715055
  C        10.3752107211        3.0239815624        4.6056268168
  H        13.2789419328        2.6263678186       11.1124607093
  H        12.2959624868        1.2538743040       11.2809610044
  C        11.8548065111        2.2820612681       12.8845500679
  C         7.3679736313        7.9349042695       12.9938392338
  C         6.7255958766        5.6821063489       13.8254106760
  C        10.2205245784        5.5000569443        4.4807183791
  C        10.5054332237        4.1403824573        3.7522106778
  S        10.6564810830        1.4357216056        3.8690868918
  H        11.6405020169        3.2339391312       13.1042361542
  H        11.0025708673        1.5779782550       13.0056426518
  C        12.9408608602        2.0824503950       13.9467699630
  N         7.8005233210        8.8934587248       12.0411253243
  C         7.2177326579        8.4606481482       14.2648309038
  C         6.4083230650        6.2418530037       15.0500469861
  H         6.5469058974        4.6204868697       13.7219588169
  C        11.5026159090        6.2107698222        4.7626189687
  C         9.2100228729        6.3393673640        3.7551504340
  C        10.8819534492        3.6503015930        2.4880222972
  C        11.0535384000        2.2738994399        2.4012151204
  H        13.7382005815        2.8269731413       14.0019939222
  H        13.4434483816        1.1530082431       13.8111873923
  C        12.3742186626        2.1480837294       15.3813431502
  S         7.8342583437       10.3358072523       12.7873233264
  N         7.4330138228        9.8380480311       14.3223327588
  C         6.6360940853        7.6769530472       15.3166051635
  H         6.1315288302        5.4762536488       15.8036811053
  H        11.3957820205        6.7657839197        5.7265940496
  H        11.6604115392        6.9509085449        3.9326995463
  C        12.7165363259        5.3287517193        4.9162487226
  H         8.6031038999        6.9746618849        4.4187121462
  H         9.6241118407        7.0779072033        3.0339086704
  C         8.1310711367        5.5126469219        3.0078880935
  H        11.0942569422        4.3457237496        1.7180889892
  C        11.4517427855        1.4973316749        1.1791345144
  H        11.7257636406        3.0324125028       15.4062134409
  H        11.7292055658        1.3137515420       15.5708677256
  C        13.2984338329        2.1817006927       16.6286008788
  C         6.3979318711        8.2915252525       16.5794557643
  H        12.4870546189        4.4143293850        5.4858174915
  H        13.0777636714        5.0017462189        3.9263242361
  C        13.7920917808        6.1603608305        5.5741956600
  H         7.6482436932        4.9679291209        3.7859753901
  H         8.5397377294        4.8125584197        2.2062797361
  C         7.0176011921        6.4963868121        2.5020082183
  C        11.4438195807        0.1039148994        1.0398582125
  C        11.9577595335        2.2589648286        0.0339942862
  H        14.2450792606        2.6566168736       16.4200133161
  H        13.6329290839        1.2282069454       16.9959773646
  C        12.5163888402        2.7520518364       17.7626443358
  H         6.5849574398        9.3144228760       16.5760656620
  C         6.1239496849        7.7804249225       17.8570109462
  H        13.4797684192        6.7259567502        6.4424997883
  H        14.2256064453        6.8351571753        4.8181515613
  C        14.8936548236        5.2929846812        6.1329873782
  H         6.7194325450        7.0645070563        3.3712020515
  H         7.3338296313        7.1779630671        1.7706753229
  C         5.7855691519        5.7226657704        1.8777193884
  N        11.1512697419       -0.8524199913        2.0179551995
  C        11.8308112833       -0.5100938068       -0.1477185424
  C        12.1817554308        1.6525322405       -1.1524309620
  H        12.1107438209        3.3245762976        0.1599923951
  H        13.1945563191        2.9435320262       18.6030301097
  H        11.6215545415        2.2254547945       18.0343765927
  H        12.2056991380        3.7300792837       17.5646416108
  S         5.9236329197        6.1344357351       18.2190875504
  C         6.0120284010        8.7734256111       18.9906201802
  H        14.5105397626        4.7722393437        6.9951226984
  H        15.1748323240        4.5859488752        5.3674485937
  C        16.1334327588        6.1929374472        6.5045276531
  H         5.6271955858        4.8352678695        2.4173223206
  H         5.9747862132        5.3618741402        0.8636002488
  C         4.4646657896        6.5213850798        1.6381053587
  S        11.5192534864       -2.3336812421        1.4373622605
  N        11.9955459656       -1.8606424956       -0.0652370273
  C        12.1491252953        0.2139471846       -1.2758574496
  H        12.5545457002        2.3359011292       -1.9959719335
  C         5.7844369107        6.7008547633       19.8683628942
  N         5.6330659163        8.0453926090       20.0289101668
  O         6.1798595792       10.0147777145       18.9797576379
  H        16.5970580095        6.6003942267        5.6600788270
  H        15.8188616884        6.9740676400        7.2140866161
  C        17.0147738450        5.1116009142        7.1567180488
  H         4.2829734250        6.9554639139        0.6512302229
  H         3.6410106450        5.8151581936        1.7988216829
  C         4.1481859161        7.7710545651        2.4823498837
  C        12.5224653285       -0.5338555167       -2.4334497256
  S         5.3685199477        5.7440063000       21.2560988249
  C         5.4374329826        8.7646686719       21.3194388448
  H        16.5214261182        4.6453485071        7.9891972685
  H        17.1296362796        4.2585288442        6.4835387668
  C        18.4081531617        5.6490796604        7.7008210463
  H         4.5565594595        7.5761083244        3.5537094128
  H         3.0339570508        7.8542542550        2.5265984141
  C         4.8251694207        8.9929939904        1.8552836630
  H        12.1625979968       -1.5375353430       -2.5057673870
  C        12.8505177478       -0.1401964557       -3.6483759333
  H         4.7406305591        8.1925892771       22.0206319089
  H         4.8670814484        9.6391811510       21.0988535887
  C         6.8356506831        8.9626359662       21.9918709629
  H        18.7270853484        5.0662419043        8.5770496352
  H        18.2727167714        6.6185586569        8.1508061160
  C        19.5334656803        5.7053901553        6.6851136361
  H         5.1196747669        9.7249647303        2.6182195212
  H         5.7307225150        8.7333876764        1.4610659582
  C         3.8472664120        9.6815324142        0.7709145879
  S        13.4059748230        1.3926203848       -4.0985886660
  C        12.9185825705       -1.1815000874       -4.6470078191
  H         7.6201309135        8.3980456001       21.5183714705
  H         6.8270105644        8.5378576694       22.9820278475
  H         7.2901068050       10.0438244669       22.0382786424
  H        19.2889461380        6.1839573611        5.7967006923
  H        20.4301491006        6.1049052216        7.1677921649
  H        19.8777991877        4.7070980485        6.3211653576
  H         2.9855268754       10.0990555854        1.3444203356
  H         4.2647049826       10.5564234758        0.2749835385
  H         3.4700709992        9.0262436583       -0.0108127594
  C        13.7637006611        0.6132267650       -5.5942333293
  N        13.4954821630       -0.6749800862       -5.7274538543
  O        12.5347911842       -2.3728521670       -4.6114193289
  S        14.3804271836        1.4477609685       -7.0530268557
  C        13.8555359941       -1.5254496737       -6.9044798730
  H        13.9369336707       -2.5884138089       -6.7074173438
  H        14.8011852107       -1.1703655729       -7.2164242614
  C        12.8453625078       -1.3688587251       -8.0131135125
  H        12.7937427620       -2.2268234312       -8.7261683043
  H        12.9698296747       -0.4099895890       -8.4996054684
  H        11.7738028360       -1.3778792747       -7.6340177762
