352
 i =   127900, time =    63950.000, E =        99.7490956903
  H        10.7843663431        6.5150689744       30.9271628935
  C        11.7121704579        6.2885592241       31.3409276236
  H        12.0444951105        7.1747978743       31.7738367952
  C        12.7857096687        5.7756432172       30.2704619920
  C        11.5926894917        5.3183198798       32.5212119092
  C        12.2555149656        4.6294930200       29.3863393850
  H        13.1737906411        6.5614745428       29.5925726689
  H        13.6727480782        5.3999846042       30.7658130106
  H        10.9142492948        4.4813319950       32.3451698527
  H        12.5609003993        5.0365645800       32.9625791662
  H        11.0860287399        5.8244486309       33.3155920915
  C        12.1139659597        5.0587690552       27.9240206154
  H        11.3203725190        4.3739331558       29.8554214523
  H        12.9441856143        3.8105820614       29.4165126123
  C        10.9014671607        5.8360588665       27.5550293035
  H        12.9710345807        5.6156158562       27.5869386497
  H        12.0544524304        4.1701298305       27.2944814126
  C         9.9067444106        5.0981243714       26.6869190152
  H        11.2011146451        6.7194098355       27.0765361512
  H        10.5704051387        6.0657724785       28.5924184520
  C         8.6836233584        6.0416190300       26.2674806281
  H        10.4097999908        4.9823016117       25.7359368821
  H         9.6058667181        4.1061764610       27.1449190263
  C         7.4724915462        5.5415425694       25.4715557797
  H         8.2499895169        6.6756669667       27.0978532842
  H         9.1102432748        6.7267351244       25.4683778546
  C         7.0536158141        4.2247459888       26.1445767451
  C         7.8134423764        4.8479357949       24.1719863313
  C         6.3790849180        6.5149780514       25.3720228505
  C         7.2761730431        3.1417585719       25.3440126526
  C         6.5570331690        3.9061044561       27.4154644678
  C         7.7650003372        3.5047049986       24.1021890303
  C         8.3101842386        5.3950299746       22.9826556687
  H         6.6719633085        7.3245954724       24.7401554440
  H         6.1311746520        6.9408620871       26.3263565726
  C         4.9987667488        5.9166193323       24.7948223923
  S         6.9524644211        1.6653246800       26.1100054508
  C         6.4243526199        2.5228903923       27.5232622686
  H         6.2009264088        4.6134198491       28.0896531205
  C         8.0398906095        2.8276671145       22.9588654589
  H         8.4220523666        6.4749373468       22.9760304794
  C         8.4499975450        4.7613354208       21.7989654729
  H         5.1118020262        5.7835339315       23.7166118572
  H         4.6206745977        5.0044677925       25.2563567226
  C         3.8367666348        6.9546245582       24.9455276980
  C         6.0604929769        1.7992201704       28.7728981612
  C         8.2953155207        3.4112982513       21.6705760024
  H         8.0033065604        1.7748146375       23.0583173365
  C         8.8544496867        5.1463619565       20.4999419336
  H         3.1855095365        6.8731864304       24.0441538667
  H         4.3491362135        7.9510806417       24.9813566290
  C         3.0728614713        6.9583304833       26.2344256409
  C         5.9929466814        0.3767702372       28.9250614326
  C         5.7253437904        2.6155954109       30.0345019624
  C         8.5556684778        2.7245183687       20.3837212032
  C         9.0143804140        4.0128697384       19.7122345457
  S         9.2728363840        6.6455768215       19.7930587631
  H         2.2460470871        7.6294675583       26.1467531975
  H         3.7021167141        7.3754416558       27.0321423233
  C         2.3812826344        5.6560109847       26.6030180950
  N         6.2621833528       -0.5020430976       27.8531126413
  C         5.7287864727       -0.2671384934       30.1906237117
  C         5.3050075250        1.9860875975       31.1789257835
  H         5.6162141480        3.6794621073       30.0627885964
  C         7.3237396004        2.0369783065       19.7355241230
  C         9.8243165186        1.8783423914       20.4737486588
  C         9.4261810477        4.4444070361       18.4131645849
  C         9.6104333797        5.7906734109       18.3602478122
  H         1.9182357146        5.3524473387       25.6932732176
  H         3.1299594225        4.9225949136       26.8450053380
  C         1.4326667598        5.7876644287       27.7380050632
  S         6.2568455927       -2.0144207363       28.5056304335
  N         5.7880985933       -1.6333914742       30.0197096509
  C         5.3937346039        0.5064446536       31.3565519478
  H         5.0039602910        2.6676394868       31.9871770463
  H         7.1517728314        1.1176692478       20.3300877062
  H         7.5343187566        1.7257729315       18.7506097512
  C         6.0283553043        2.9175333122       19.7910319334
  H         9.9636469357        1.4910926452       19.4462799383
  H         9.6099150756        1.0407437018       21.1032453247
  C        11.1554227563        2.6274356267       20.7612030277
  H         9.5921443779        3.6863484276       17.6802185866
  C        10.0507343058        6.5729618565       17.1779594749
  H         0.8599221190        4.9179695099       27.8386629797
  H         0.7521726424        6.5321932304       27.4879334730
  C         2.1988999733        6.0949609173       29.1001948651
  C         5.2200447862       -0.2400912771       32.5473652515
  H         6.2680203754        3.7937361678       19.1776979216
  H         5.6806752986        3.1716553389       20.7540001871
  C         4.8230656785        2.1736955340       19.2620341625
  H        11.2971773839        3.4742196775       21.4479607573
  H        11.4653101768        3.0991932987       19.8106997662
  C        12.2468716876        1.6894962919       21.2665081259
  C        10.0224613620        7.9781038117       17.0450044055
  C        10.5518591939        5.8306166834       15.9764771667
  H         2.3309829921        7.1809936846       29.0920956331
  H         1.5998972428        5.9702057337       29.9473388831
  C         3.5038488920        5.3125295133       29.3492968435
  H         5.4592655401       -1.2299051472       32.4826823715
  C         4.8867421378        0.0588656204       33.8314666249
  H         3.9121580610        2.4196727000       19.8876960374
  H         4.9822948026        1.1196543300       19.3098913595
  C         4.3682404659        2.5176235618       17.7904343895
  H        11.9133968455        1.0619279925       22.0551606924
  H        12.5106044193        1.0639518629       20.4193234846
  C        13.4102287062        2.5213472428       21.7916247563
  N         9.6220998185        8.8978935562       17.9577736720
  C        10.4012473169        8.6279890946       15.8479427332
  C        10.8049076708        6.4720907452       14.7517108049
  H        10.6651815162        4.7008041569       15.9274314440
  H         3.3981914068        4.2174000931       29.2620726623
  H         4.2523212220        5.6856563488       28.6451684908
  H         3.9336155866        5.5055567796       30.3519518456
  S         4.3241442224        1.5987229404       34.3774347257
  C         4.8555168451       -1.0469790877       34.8229950876
  H         4.4127817863        3.5988885469       17.6953002489
  H         5.0081434896        2.0189840855       17.0525248023
  C         2.9235411086        2.1374527659       17.4654856277
  H        12.9763358572        3.2034371475       22.5131246944
  H        13.9042148870        3.0453976847       20.9833855362
  C        14.3394826034        1.8422550034       22.8080736081
  S         9.7908714703       10.4236126658       17.3963092778
  N        10.4600378096       10.0499814525       15.9963074704
  C        10.7345974753        7.9284277657       14.6362354972
  H        10.9405759037        5.8041086267       13.8665312334
  C         4.2387944314        0.7758203451       35.9798480979
  N         4.4777778833       -0.5430717075       36.0218064328
  O         4.8734904457       -2.2560671541       34.5758542587
  H         2.4470743023        2.9247716749       16.7731250028
  H         2.3551314429        2.1077425733       18.3548110050
  C         2.8207765370        0.8180909608       16.6816173491
  H        13.7561541245        1.5693413765       23.6996595766
  H        14.8932283669        1.0284047518       22.2798849073
  C        15.4183383510        2.8705580781       23.0486022575
  C        10.9950154255        8.6669684120       13.4461054278
  S         3.9820077324        1.6555832442       37.5420964584
  C         4.4756405124       -1.4532015333       37.1411954034
  H         1.9816894086        0.6838168735       15.9588406009
  H         3.7057648116        0.6146940334       16.1112776485
  C         2.6467209756       -0.3637936708       17.7044764722
  H        15.2261207432        3.1649902240       24.1265977511
  H        15.2119819396        3.7628992445       22.4395017770
  C        16.8634530019        2.4538161714       22.7613323255
  H        10.4945476719        9.5726315262       13.5073678191
  C        11.6775843633        8.3622230511       12.2667109136
  H         3.8045439904       -1.1441466868       37.9909776606
  H         4.1989011234       -2.4900818056       36.9053225493
  C         5.9141920238       -1.5146544838       37.6594515807
  H         2.3736846404        0.1145641666       18.6951457698
  H         3.6138242685       -0.7923429072       17.8082029845
  C         1.6232930718       -1.4355379066       17.2686871974
  H        16.9023140659        1.7278019367       22.0005924039
  H        17.2961036300        3.4169745684       22.4893331448
  C        17.4907218592        1.8587488241       23.9365309934
  S        12.4206879816        6.8513074125       11.8337865492
  C        11.5889193145        9.3690284468       11.1761973357
  H         6.6378028071       -1.6717063039       36.8801046932
  H         6.1810306596       -0.5896417713       38.2417726620
  H         6.0127603318       -2.3882934815       38.3226361062
  H         0.7298422154       -0.8345870958       17.0450080651
  H         1.4641260942       -1.9725586809       18.2273712777
  H         1.8066224560       -2.0546745220       16.3341260497
  H        18.4963827683        1.6034008699       23.7043318295
  H        17.0792624360        0.8762963850       24.1611549112
  H        17.3855194622        2.5567282463       24.7911935690
  C        12.7473342656        7.6330464187       10.2728712862
  N        12.2611590023        8.9193537280       10.1266139895
  O        11.1012847183       10.4632143924       11.2523165388
  S        13.5218122297        6.8094487190        8.9280918893
  C        12.3580827074        9.7171224619        8.8785631305
  H        12.6268337434       10.6985219157        9.0746537359
  H        13.0997246153        9.1701154469        8.2226573992
  C        11.0959062452        9.7193191990        8.0956745110
  H        10.5005549928        8.8441766553        7.9830188120
  H        10.5656024711       10.6042894458        8.4009523673
  H        11.4363738845       10.0433850472        7.1136065486
  H         2.7560480280        2.6162516259       13.2399826765
  C         3.4735112049        2.3626924818       12.3820841527
  H         3.6303855863        1.2724942763       12.3627771990
  C         2.7804808117        2.7671190710       11.0611416800
  C         4.8457932580        3.0892305257       12.6256249577
  C         3.6131293873        2.9604208699        9.7808522390
  H         2.4134611285        3.7704884947       11.2120679492
  H         2.0179356088        2.0664486953       10.9186558772
  H         4.8625667637        3.5060850424       13.6885978963
  H         4.9937458374        3.9414035075       11.8996327240
  H         5.7198821344        2.4658115549       12.4950567370
  C         4.6786281821        1.9103268316        9.4837819378
  H         2.8116435892        2.9193524873        8.9868411545
  H         3.9345347271        3.9547788934        9.5974196960
  C         5.4072841180        2.1914738172        8.1915804953
  H         4.1936914121        0.8883944131        9.5557010145
  H         5.4436966477        1.8638154790       10.2749443490
  C         6.6646836759        3.0787212862        8.5003577302
  H         4.7441602917        2.7156007273        7.5058201460
  H         5.7241180371        1.2563378936        7.6671439997
  C         7.8597946423        2.2167159155        9.1354719629
  H         6.9297444244        3.5013277578        7.5743993096
  H         6.3812153940        3.9636145312        9.0874871461
  C         9.1935745066        2.9922383205        9.2665232850
  H         8.0560617539        1.3244895673        8.5677743815
  H         7.5489092350        1.7447415789       10.0557232062
  C         8.8028711168        4.3226975295        9.8705918725
  C         9.6228223353        3.6209861358        8.0574885947
  C        10.3479202762        2.2461197199        9.9028339795
  C         9.0765624020        5.4015485222        9.0826785862
  C         8.2190816588        4.6974460229       11.0631937392
  C         9.7146517690        4.9992995131        7.9371132096
  C        10.1060303822        3.0061559264        6.8870192403
  H         9.8839794497        1.8703306839       10.8245888498
  H        10.6885715222        1.3812663031        9.4303098666
  C        11.5440690489        3.0914181385       10.3787152498
  S         8.7673718692        6.9138576178        9.7850829901
  C         8.1756387386        6.0822162068       11.2314396221
  H         7.9251852521        3.9335896887       11.7784130133
  C        10.2568888312        5.6616944968        6.8244030923
  H        10.0257346392        1.9716153240        6.8363677717
  C        10.4569341875        3.6191016770        5.6722622252
  H        11.2215524988        4.0221680627       10.8946871152
  H        11.9906905846        3.5380813997        9.4914395010
  C        12.5108324270        2.3927623579       11.2957361490
  C         7.6391291576        6.7399111504       12.4277654484
  C        10.5471518042        4.9946812333        5.5772946749
  H        10.3929313412        6.7198496019        6.9114586525
  C        10.8506449761        3.1801131094        4.4118816299
  H        13.4342211270        2.9255324787       11.2967197350
  H        12.9000382423        1.4048545393       10.9922237827
  C        11.9805561787        2.4251784407       12.7350640534
  C         7.6720874789        8.1456861830       12.7011803843
  C         7.1785853462        5.9450086610       13.5744920678
  C        11.0404125096        5.6191209776        4.3222322430
  C        11.2869107404        4.2334421062        3.5958762164
  S        11.0615801349        1.6411969069        3.6396547637
  H        11.4673798901        3.4041669714       12.8426175410
  H        11.2377152987        1.6823966066       13.0155678451
  C        13.0667740700        2.1853372946       13.7789919417
  N         8.0877584372        9.0579299958       11.7779839736
  C         7.3250751592        8.6850137236       13.9328570619
  C         6.7623654653        6.4710039727       14.7764552762
  H         6.8502991507        4.9211144637       13.2852843448
  C        12.3594333310        6.3338452814        4.4988029253
  C         9.9179634068        6.3057367330        3.5655679857
  C        11.5528728222        3.7719905058        2.2527624521
  C        11.5149909997        2.3836337181        2.1750372592
  H        14.0212166491        2.7362210839       13.6141348073
  H        13.3157151143        1.1179515899       13.9680410253
  C        12.5636753824        2.6953803239       15.0767310467
  S         8.0329095305       10.5407153005       12.4217939322
  N         7.5797262588       10.0895620436       13.9548665379
  C         6.9474093865        7.9096226270       15.0663964094
  H         6.3271534269        5.6974681981       15.3826099582
  H        12.2301672384        7.0387918991        5.2960496535
  H        12.7228332379        6.8495430421        3.6244835751
  C        13.4985945187        5.4132872289        4.9258724655
  H         9.7018527403        7.1485326869        4.0767829711
  H        10.4159236530        6.7570216864        2.6728699189
  C         8.7082983018        5.5458154936        3.1575718546
  H        11.8173403631        4.4812565298        1.4251263029
  C        11.8875683612        1.5910844511        0.9859818020
  H        12.4441190675        3.8087229877       15.0253715352
  H        11.5831415728        2.2372383674       15.0783376000
  C        13.4242530226        2.3519325470       16.2615281939
  C         6.6941601149        8.5444891887       16.2637324149
  H        13.1392951576        4.8733845977        5.8731911813
  H        13.7654436337        4.7408979882        4.0918823046
  C        14.7184429797        6.2390886944        5.4394677113
  H         8.3264943323        4.9506995968        3.9808434173
  H         8.9760520446        4.7495224713        2.4110309288
  C         7.6100508149        6.4758027829        2.6837893755
  C        11.9576644776        0.1812944388        0.9366422134
  C        12.0364037454        2.2336938087       -0.3075466976
  H        14.2624653424        3.0471253862       16.4084264841
  H        13.9961337192        1.4539099114       16.0456292611
  C        12.6827849733        2.2876507078       17.5778917018
  H         6.7280036821        9.6082497276       16.1946911854
  C         6.5372155338        8.0825478918       17.5400032437
  H        14.5352751929        7.0434072455        6.1053724962
  H        15.2587930798        6.7481862198        4.6371812339
  C        15.7157993819        5.2142731255        6.0413895528
  H         7.3907124120        7.3511239136        3.2815797713
  H         7.9682341517        6.9085819489        1.7995991941
  C         6.2618288951        5.7801380867        2.3937009337
  N        11.7736968483       -0.6940211129        1.9801044252
  C        12.2883762706       -0.4898183533       -0.2120280398
  C        12.3359566131        1.5751267727       -1.4551406684
  H        11.9058434901        3.2908496028       -0.3416296566
  H        12.3055776879        1.3052089181       17.7167233636
  H        11.8519927483        2.9220854892       17.5366844919
  H        13.2231487340        2.6073191141       18.4867453694
  S         6.3589924025        6.4907870917       18.0779452055
  C         6.3809126705        9.1480942384       18.5856144839
  H        15.3353893292        5.0589156712        7.0393861329
  H        15.6640158735        4.2030385925        5.6329021628
  C        17.1376288774        5.8192998668        6.1141631541
  H         5.7749886102        5.6052209046        3.3464825919
  H         6.3314907573        4.8441613401        1.9224955340
  C         5.3995266443        6.6892910592        1.5425530026
  S        11.8455461297       -2.1861409033        1.4628866205
  N        12.2628210614       -1.8949638676       -0.0801035086
  C        12.5596512360        0.1345971167       -1.4606054396
  H        12.4341093041        2.2127524054       -2.3177812708
  C         5.9794483310        7.1699338760       19.6565625025
  N         6.0268070509        8.4990916990       19.7204316810
  O         6.3689873704       10.3336051654       18.3631561280
  H        17.6295122314        5.8950613943        5.1414099101
  H        17.0545627477        6.8846359896        6.3956423790
  C        18.0916701560        4.9984099596        7.0406662647
  H         5.9779821870        7.4551836764        1.0143164882
  H         4.8235361976        6.1798294154        0.7639976950
  C         4.3718763113        7.4424718541        2.2405647187
  C        12.8016579555       -0.6237603076       -2.6927228927
  S         5.2924096750        6.3016172522       21.0072599696
  C         5.9734894652        9.2744408228       20.9755003044
  H        17.5461279466        4.5690810206        7.8268714922
  H        18.4144195625        4.1167428603        6.4346545669
  C        19.3148621708        5.7911400624        7.5216604590
  H         4.6435541464        7.8422557608        3.1795672921
  H         3.4310646707        6.8531811602        2.3975120350
  C         3.9360473277        8.5650855718        1.4069813718
  H        12.6443341714       -1.6612694344       -2.6217348542
  C        13.1663038376       -0.3642822316       -3.9596201356
  H         5.5902576252        8.7548832066       21.9064958228
  H         5.4356786213       10.1784512577       20.8393510557
  C         7.4053919621        9.6690936077       21.3955144186
  H        19.8881631551        5.2398998981        8.2766865120
  H        19.0229434016        6.7258549879        7.9317743618
  C        20.4399684006        5.9757366967        6.5179907256
  H         3.7600097939        8.2967074510        0.3382673879
  H         3.0149253748        8.8051599097        1.8974571888
  C         4.8915700401        9.8042492860        1.5734404184
  S        13.6454733401        1.1764019530       -4.5746508788
  C        13.2003197147       -1.5053693278       -4.8902839951
  H         8.0961357668       10.1314519276       20.7008883161
  H         7.9527855579        8.8269188401       21.7772180215
  H         7.2601564235       10.3684409379       22.1584892139
  H        20.1512687054        6.3011993675        5.5736210834
  H        21.2433248466        6.7054726628        6.9119376536
  H        20.9858769623        5.0415223510        6.3083316011
  H         4.8056004187       10.2621173728        2.6006244975
  H         5.9316690611        9.4832012123        1.3502166835
  H         4.4690834088       10.6009181092        1.0141456594
  C        14.0489562821        0.2171678106       -6.0210076072
  N        13.8354725306       -1.0970011067       -5.9838016602
  O        12.8525263747       -2.7199063244       -4.6124309569
  S        14.7413906575        0.8934048783       -7.4747598284
  C        14.2058017950       -2.0112751991       -7.0480273266
  H        14.1288539027       -2.9967420039       -6.6815081915
  H        15.2303812826       -1.8497243511       -7.3211712443
  C        13.1098409026       -2.0521121185       -8.1448106101
  H        13.1090722543       -1.2239691484       -8.8290318754
  H        12.1952801956       -2.0626237210       -7.5155625793
  H        13.1127831628       -2.9355886844       -8.6955723831
