352
 i =   112600, time =    56300.000, E =        98.6562414967
  H        10.3012864174        4.3580333531       31.8940699139
  C        10.2476825071        5.4203328333       32.0447830818
  H         9.1938847610        5.7780563949       31.8890005837
  C        11.1931363023        6.1000805276       31.0252614333
  C        10.6493847553        5.7470518379       33.5282068885
  C        10.5393233584        6.1954182474       29.6068428644
  H        11.3056872230        7.1570258410       31.3654391204
  H        12.2144448466        5.6683445607       31.0373347290
  H        11.6293487832        5.3673747311       33.6474100954
  H        10.7239453371        6.8641299791       33.7898306673
  H         9.9993323780        5.2330081180       34.1975391545
  C        11.0451427572        5.2207026904       28.4844679548
  H        10.6249146861        7.1611020923       29.2049631799
  H         9.4676291933        5.9922471768       29.8041934309
  C        10.9547845556        5.6642358685       27.0220714392
  H        12.1080862948        5.2451387722       28.6946658620
  H        10.7600728600        4.2133363684       28.6490126928
  C         9.7388820509        5.1436741477       26.2707798786
  H        11.8604453200        5.2643647279       26.6229962095
  H        10.9727044146        6.7164939366       26.9834138584
  C         8.5369313526        6.0294190990       26.2326993250
  H        10.2000743011        4.9484298412       25.2716148843
  H         9.5242872796        4.0997596857       26.5210878432
  C         7.4073054780        5.3198067336       25.4066987236
  H         8.2677120087        6.2733726680       27.3060326279
  H         8.7593219580        6.9237627960       25.7038144704
  C         7.0118462965        3.9379799987       26.1222347692
  C         7.8971968206        4.5878497732       24.1670627153
  C         6.2625729796        6.3217687601       25.1555955433
  C         7.2371962704        2.8618604472       25.2891416479
  C         6.3512365255        3.5534167104       27.3089665993
  C         7.8836157192        3.2616160387       24.1532945999
  C         8.2909510981        5.1743683109       22.9837476295
  H         6.6588004156        7.1824276096       24.5819135241
  H         5.8134093245        6.8612579250       26.0233270961
  C         5.1344107574        5.7648821167       24.3555933802
  S         6.7591616977        1.3869856966       26.0241344840
  C         6.1122667561        2.2482848609       27.3623981023
  H         6.0890146895        4.3273420715       28.0104522054
  C         8.2001739507        2.6000662095       22.9643192991
  H         8.3489313187        6.2736506811       22.8756485223
  C         8.5676150925        4.5196288246       21.7734925866
  H         5.5851253023        5.7406253637       23.3778588359
  H         4.8549931051        4.8116477408       24.7859216178
  C         3.9015052389        6.6739605437       24.2094811996
  C         5.5880345565        1.5223616184       28.6114142531
  C         8.5213218872        3.2036520692       21.7137086494
  H         8.2500321188        1.5149393270       23.0614420224
  C         8.9562022530        4.8857376996       20.4725912932
  H         3.2589894999        6.2666701774       23.4469871329
  H         4.1980047572        7.6199955207       23.8016625490
  C         3.1612079101        6.9022588447       25.4862965330
  C         5.6331230494        0.1866950337       28.8355368911
  C         5.1251055755        2.3327480720       29.7434017800
  C         8.9796676523        2.5330331402       20.4411994421
  C         9.1075755093        3.8119845826       19.6639254371
  S         9.1932613932        6.3934948628       19.6683561916
  H         2.3096180085        7.5043420323       25.3096162655
  H         3.7720598737        7.3785656309       26.2516680903
  C         2.6355611805        5.5698474591       26.1198336146
  N         5.9965562998       -0.7498326048       27.8859735010
  C         5.2520587798       -0.3362980372       30.0793144135
  C         4.7712920278        1.8056377952       30.9671494735
  H         5.1002359359        3.3993576424       29.6661433005
  C         7.8752552338        1.6286750985       19.7496890670
  C        10.3753320861        1.7585493485       20.6276107374
  C         9.2809713427        4.1887663681       18.2876592261
  C         9.3469380999        5.5675851072       18.1603914110
  H         2.1916779201        5.0067592864       25.3265364091
  H         3.4666167400        4.9834096179       26.5670795984
  C         1.5927740526        5.6915682412       27.2158237716
  S         5.9336097917       -2.2475994359       28.5835631511
  N         5.4299851917       -1.7632043248       30.0465182366
  C         4.9047096839        0.3261093685       31.2324994834
  H         4.3516663699        2.4926224685       31.7492167577
  H         7.6646565316        0.9274115806       20.5242442528
  H         8.4287081759        1.1648891288       18.9118929312
  C         6.5847752053        2.2792680316       19.3205186791
  H        10.5499006423        0.9362345007       19.9801927464
  H        10.3568377171        1.3995695777       21.6928620382
  C        11.5720273981        2.6351228712       20.7323651887
  H         9.4617455126        3.4031579428       17.6013029036
  C         9.6181679948        6.3106624635       16.8687309079
  H         1.0720845901        4.7717319158       27.3277977797
  H         0.7636089396        6.3253602621       26.7437947961
  C         2.1657000506        6.2513764057       28.4605101330
  C         4.6387550499       -0.3842010561       32.4574146145
  H         6.8352267851        2.9350974534       18.4025205917
  H         6.3236639707        3.0406055221       19.9790890570
  C         5.5052480307        1.2798633376       18.9722500161
  H        11.2990815013        3.3029127394       21.5768157078
  H        11.7276315704        3.3231566623       19.9046450000
  C        12.7573768271        1.8172885048       21.3413400161
  C         9.6803686393        7.7473158798       16.7726656499
  C         9.7534336271        5.5440670232       15.6103176328
  H         2.7468988487        7.1279711710       28.2529182779
  H         1.3661672548        6.4285531216       29.1803363652
  C         3.0889626179        5.3466807689       29.2360957984
  H         4.6850982622       -1.4690834949       32.4346252628
  C         4.4076997487        0.0156742050       33.7994205265
  H         5.1375427037        0.8030342648       19.8965380912
  H         5.8327177613        0.4958734316       18.2988145452
  C         4.2816012303        2.0186535287       18.4819883684
  H        12.4184442671        1.3150838283       22.2330028588
  H        13.1318071249        1.0224283163       20.6736451876
  C        13.9588851578        2.7429546631       21.5241632621
  N         9.7520591591        8.6686026788       17.8442988633
  C         9.9907074252        8.3185645339       15.5818571174
  C         9.9080206849        6.2078769814       14.3619471560
  H         9.5264014180        4.5018261468       15.6855433957
  H         3.0604679662        5.5657892025       30.3352185228
  H         3.0943147433        4.2223634527       29.0324245017
  H         4.1486121866        5.6495040040       29.0802705548
  S         4.1895652085        1.5700481910       34.3310217999
  C         4.3429255672       -1.1224194126       34.7895956251
  H         4.2507781820        2.9513053166       19.0318644813
  H         4.4318719401        2.2904933547       17.4278051096
  C         2.9074310710        1.2099537595       18.5441485679
  H        13.7388213067        3.3616257601       22.3944292266
  H        14.1778759018        3.4030014987       20.6482826965
  C        15.1361597943        1.8902690373       21.9132300062
  S         9.8517135731       10.1870314902       17.2247686361
  N         9.8930340777        9.7297116598       15.6622050403
  C        10.3339516555        7.6376432649       14.3660866208
  H         9.9187923866        5.5745558914       13.5105027359
  C         4.0980165664        0.7950663291       35.9467847731
  N         4.0891311671       -0.5831266938       35.9455334911
  O         4.4971520083       -2.3105780945       34.5075355384
  H         2.1085388349        1.9617094791       18.4086888544
  H         2.7162266739        0.7832307768       19.5839582534
  C         2.9760130639        0.2195288332       17.4052493022
  H        14.8598603168        1.4955047529       22.9380591851
  H        15.3620699056        0.9502424183       21.3738785794
  C        16.3788502949        2.8195452381       21.9255805495
  C        10.6026693900        8.4017868970       13.1842519303
  S         3.8296820665        1.5559377821       37.5609135767
  C         4.0410748238       -1.4176206303       37.1548728078
  H         2.6560483859        0.4841704550       16.3998304505
  H         3.9233861231       -0.2220930162       17.2035208892
  C         2.0363331776       -0.9346102292       17.7672978722
  H        16.1655688287        3.6815858052       22.5550370283
  H        16.6721147093        3.1966373648       20.9183066343
  C        17.5649366970        2.1873331745       22.6673398027
  H        10.3646922175        9.4352132964       13.3249091528
  C        11.2672686466        8.0566406632       12.0223595945
  H         3.3218679335       -1.0023456869       37.8345437164
  H         3.6202232295       -2.3649779857       36.9957078713
  C         5.4952469597       -1.4498770078       37.7911823356
  H         1.0432467646       -0.5161772095       17.8579934110
  H         2.2471885208       -1.4029341904       18.6637731796
  C         1.9757057211       -2.0155996369       16.7091107640
  H        17.8329155664        1.2334003820       22.2149584966
  H        18.4884739118        2.7389099744       22.5003343894
  C        17.2508883737        1.9858473755       24.1508523017
  S        11.8646130451        6.4691834918       11.8727694828
  C        11.5674277923        9.0305097933       11.0110751832
  H         5.5348568031       -2.3180490395       38.4598722272
  H         6.3214783735       -1.6939293852       37.0882809144
  H         5.8574207786       -0.6238916803       38.3480813967
  H         1.4692360563       -1.5120714072       15.9165877246
  H         1.4295982865       -2.9630197970       16.9433825272
  H         2.9784167483       -2.2252895679       16.2738409723
  H        16.5716441568        1.1498488199       24.3777383951
  H        16.7977114703        2.9081753630       24.4257035197
  H        18.1482657188        1.8442482198       24.8306263526
  C        12.2565043669        7.0282429148       10.2184363787
  N        12.2128644775        8.3642458971       10.0038062957
  O        11.1746159891       10.2019381706       11.0962406824
  S        12.9902513003        6.1122713016        8.8867706731
  C        12.3886579816        9.1173075661        8.7371993909
  H        12.2252846609       10.1600610220        8.9970546374
  H        13.2866129846        8.9229172744        8.2485555954
  C        11.1399795471        8.8133107825        7.8161804619
  H        10.3971866867        8.2210731840        8.2415632201
  H        10.5883103217        9.7140897630        7.6553626611
  H        11.4854736028        8.3770645479        6.8515473655
  H         2.7150685559        3.9114716844       12.2994615815
  C         3.1117783740        2.9979880891       12.6221083629
  H         2.2639989354        2.2731471296       12.4811744287
  C         4.2288398208        2.6750327870       11.6149124984
  C         3.6568450220        3.1368450600       14.0280937481
  C         3.6627528858        2.4701143062       10.2055455713
  H         4.9099842196        1.8005108247       11.9782950188
  H         4.9314708020        3.4861061169       11.5110263368
  H         2.9565521955        3.6358138755       14.7254159888
  H         4.6532655470        3.5628642329       14.1058523750
  H         3.8164427747        2.1437677359       14.4167561164
  C         4.4604502247        1.4013766689        9.3319784618
  H         2.6378499994        2.2450977090       10.2542712755
  H         3.7025644829        3.4416107538        9.7608749894
  C         5.1059564885        1.8973202415        8.0603945934
  H         3.7740638543        0.6767303832        8.9527624573
  H         5.2868600123        0.9280773187        9.9528351618
  C         6.3970622530        2.6692658279        8.3135114414
  H         4.2963904635        2.6199940327        7.6865288832
  H         5.2524673555        1.1037076572        7.3520628456
  C         7.6969975635        1.9047426681        8.5925065143
  H         6.6465553592        3.2443538212        7.4457440308
  H         6.1585548155        3.4018593187        9.1292035055
  C         8.9689308263        2.7587439238        8.9346835908
  H         7.8464007459        1.2775261950        7.7100258217
  H         7.4944268885        1.1248107931        9.3404275066
  C         8.5727223130        4.0592306837        9.6142619754
  C         9.5062960992        3.4681346459        7.7435204099
  C        10.0506055870        1.9856109880        9.7442697281
  C         8.7867349075        5.1902375153        8.7995772074
  C         7.9876406292        4.4789056765       10.8342216224
  C         9.4287761479        4.8184456141        7.6251432476
  C         9.9920440674        2.8077480879        6.6029535744
  H         9.6450393497        1.2754537681       10.4870842468
  H        10.4141816127        1.2455402014        9.0696976183
  C        11.2792712119        2.8613958665       10.0647317881
  S         8.2808220374        6.6366030074        9.4176418552
  C         7.6416497072        5.8394805018       10.8274388512
  H         7.8838831599        3.7918141975       11.6599201070
  C         9.8681524848        5.3938410366        6.4887410181
  H         9.8668888825        1.7329591418        6.6014767672
  C        10.4496122526        3.3895354084        5.4828566048
  H        10.9972347407        3.9133808376       10.4027886283
  H        11.7788975041        3.0017956037        9.1031499360
  C        12.1934309825        2.2436135801       11.1475539527
  C         7.1002799368        6.5613676953       12.0407869799
  C        10.4245385713        4.7630902934        5.3717189349
  H         9.8798815211        6.4942583123        6.4341423719
  C        10.8996347772        2.9834644911        4.2454083565
  H        13.1172749385        2.8448590972       11.1521070071
  H        12.5744873977        1.3366398714       10.8094188933
  C        11.5941271691        2.3444214578       12.5246515578
  C         7.2299734240        7.9646315100       12.3400161746
  C         6.6849548729        5.6150530754       13.1781234825
  C        10.9638124015        5.3876559333        4.0947331121
  C        11.2249752921        4.0362288921        3.4017115841
  S        11.1438235718        1.5079922865        3.4852558086
  H        11.0359030483        3.2673620215       12.6404475945
  H        10.9268988493        1.4822729711       12.6835249927
  C        12.6926699982        2.2832293697       13.5484403394
  N         7.5805934197        8.9065483812       11.4000071287
  C         7.1130827532        8.4566019332       13.5711550025
  C         6.5116782740        6.1775941622       14.4372409695
  H         6.4975294941        4.5729612631       13.0370057178
  C        12.2670698439        6.1849351246        4.4576733274
  C         9.9026616409        6.1580884072        3.2722590873
  C        11.6917170297        3.6175755570        2.1588862603
  C        11.6839918104        2.2970628907        2.0789465640
  H        13.3819501975        3.1272137389       13.3674233490
  H        13.4189846529        1.4990904193       13.3945045593
  C        12.1294398407        2.2910641380       14.9587188085
  S         7.8921847600       10.3397273235       12.1363967407
  N         7.4761243101        9.7984145824       13.6247975908
  C         6.7926153334        7.6865139736       14.7141880625
  H         6.1370618005        5.5139813924       15.2288185125
  H        12.1267796220        6.9738353774        5.1960409409
  H        12.5045747093        6.7114857253        3.5333924202
  C        13.5190238373        5.3487735643        4.8490396300
  H         9.8616046374        7.2149537257        3.6063670542
  H        10.1343571272        6.3057006954        2.2099896368
  C         8.4998055569        5.4276270278        3.2092591121
  H        12.0693414396        4.3814626098        1.4620329439
  C        11.9994615776        1.4426201908        0.9184428030
  H        11.8189440335        3.3056970377       15.0693337476
  H        11.2996164207        1.5729363387       15.0942480135
  C        13.1891310093        1.9167205604       16.0444798720
  C         6.7071888527        8.3037446412       15.9940737178
  H        13.2350219717        4.4580750338        5.3970268937
  H        14.0008865911        5.0676059514        3.9276767922
  C        14.5670416220        6.2186820108        5.5377711477
  H         8.2318255046        5.0429002135        4.1983405617
  H         8.4270941828        4.6668642073        2.4286791739
  C         7.3994151220        6.4359565694        2.8441021899
  C        12.0011305431        0.0616640263        0.8212855206
  C        12.4139041670        2.1414180544       -0.3231143336
  H        14.2441576403        1.7057688833       15.6724351293
  H        12.9769323341        0.9381555566       16.4121940484
  C        13.0286712823        2.7637407330       17.2312480902
  H         7.0687120402        9.3100312359       15.8949885701
  C         6.4116653215        7.8152865565       17.2327878473
  H        14.2441842167        6.8781906689        6.4052107861
  H        15.0107303265        6.8603388954        4.7351679164
  C        15.6571099500        5.4006725330        6.0772061287
  H         7.3103236955        7.0873825073        3.7173541276
  H         7.7463725923        7.1151572255        2.0312109069
  C         5.9900424186        5.9560846752        2.5117677096
  N        11.6671662165       -0.8124630460        1.8392176340
  C        12.2683235569       -0.6326540035       -0.3680667121
  C        12.5898644679        1.4865750239       -1.5325890104
  H        12.6910926802        3.1304253539       -0.3238173646
  H        12.0781944916        3.3183263420       17.2820453224
  H        13.8727676936        3.4634106679       17.2515809758
  H        12.8775938647        2.1414610897       18.0909514017
  S         6.0555681618        6.2152124481       17.7117465552
  C         6.3505444394        8.8296452660       18.3391913112
  H        15.2996516029        5.0450931784        7.0206524796
  H        15.9298852273        4.5863308870        5.4892413368
  C        16.8689282884        6.2157729697        6.3856922612
  H         5.6388523567        5.2224936738        3.2377595847
  H         6.0651539179        5.4715230766        1.5505830811
  C         4.9280314718        7.0231973776        2.5034412449
  S        11.4700971046       -2.3582526797        1.2316299013
  N        11.9701542992       -1.9772834046       -0.2791954759
  C        12.6559984225       -0.0223450275       -1.5438947164
  H        12.8515068192        2.1688515687       -2.3430480484
  C         5.7701010954        6.8379656519       19.2874406393
  N         5.9053326106        8.2074589121       19.4700095962
  O         6.4204890582       10.0413608283       18.1548409779
  H        17.2202756281        6.5796255408        5.4129973809
  H        16.5090577155        6.9599337386        7.1094857437
  C        17.9441473401        5.2497317285        7.0287214016
  H         3.8703183579        6.7893784320        2.5613230193
  H         5.1182144406        7.5140710567        3.4847018576
  C         5.0295025948        8.0229133010        1.3646361453
  C        12.8403625126       -0.7995745728       -2.7291016602
  S         5.6932035556        5.8435632404       20.7348974091
  C         5.8911448305        8.9276553662       20.6906845792
  H        17.4486561934        4.5817061373        7.7194049681
  H        18.3781152582        4.5526707048        6.3011951855
  C        19.1176640198        5.8721952546        7.8080857912
  H         4.6474564936        7.5506092393        0.4729368996
  H         6.0459529549        8.2572810394        1.0327449782
  C         4.3721892246        9.3498295060        1.8136669283
  H        12.4774922756       -1.8120025625       -2.7188310498
  C        13.2635005836       -0.3566946223       -3.9534732993
  H         5.1988433810        8.4692639574       21.4200293272
  H         5.6030747904        9.9271617339       20.5481980756
  C         7.2716945661        9.1554683411       21.3635501469
  H        19.3732456985        5.1172401616        8.5223508371
  H        18.8220901878        6.8382629942        8.2534228695
  C        20.3284961084        5.9820684024        6.8326843963
  H         3.4358076805        9.2124483376        2.4065213673
  H         4.9922980482        9.9740647930        2.5352655815
  C         3.9438341629       10.1415167923        0.5971401204
  S        13.9251089537        1.1267591466       -4.4203229356
  C        13.1697290045       -1.3641204088       -5.0417527234
  H         7.6005600955        8.3916698657       22.0879953273
  H         7.3821836860       10.1664820706       21.7782109029
  H         8.0958866655        9.2113673196       20.6460257084
  H        20.0936065628        6.8311652427        6.0561073866
  H        21.2265592600        6.2303830082        7.2608889231
  H        20.5320054878        4.9959869780        6.3345418479
  H         3.3575266441       10.9749092076        0.8582627651
  H         4.8310176150       10.3428813541        0.0124885147
  H         3.2864484685        9.4845588564        0.0051216573
  C        14.1642913530        0.3577224243       -6.0811335844
  N        13.8757453590       -0.9586424082       -6.1112510160
  O        12.7546206372       -2.4724700913       -4.8900973720
  S        15.3145830216        0.9107796105       -7.2942035820
  C        14.0863583460       -1.8242671372       -7.2435578802
  H        13.9795091889       -2.8456016986       -7.0510170169
  H        15.0611887206       -1.6805272209       -7.6715018064
  C        12.8751168678       -1.5929048687       -8.1927476927
  H        12.8792579918       -0.5965675766       -8.5906812950
  H        11.9585392888       -1.8280216825       -7.7977829074
  H        13.1016931749       -2.1378008965       -9.0081668312
