352
 i =     2500, time =     1250.000, E =       201.9169255691
  H        11.3741261159        7.1626370493       32.5830629789
  C        11.4523037615        6.0965882679       32.5095170428
  H        12.4502587913        5.9327320004       32.2478700879
  C        10.5239355485        5.4819311213       31.4646858970
  C        11.2201774124        5.5100089102       33.9997127850
  C        11.1139579782        5.7292752805       29.9946116697
  H        10.3718659007        4.3759028736       31.5497272469
  H         9.5264543473        5.9488059375       31.4522531893
  H        11.2512967436        4.4352322517       33.8417418668
  H        12.1122369433        6.0088991178       34.5899532247
  H        10.2335459196        6.0356042415       34.2019880471
  C         9.9719734930        5.6044557084       28.9367921146
  H        11.8044164651        4.7848833628       29.8634986305
  H        11.7013307185        6.7353379804       30.0238333954
  C        10.5254965402        5.4381967535       27.5461387984
  H         9.4642377424        4.6618585916       29.1258902823
  H         9.2228862532        6.4336435900       28.8373338702
  C         9.5207882575        4.8481137158       26.3903632155
  H        11.3825428412        4.8629418708       27.4722262179
  H        10.8769084738        6.4326726021       27.1171882176
  C         8.2394225278        5.6376395573       26.2704568188
  H         9.9434193898        4.9081592145       25.5305577770
  H         9.2451973460        3.7842187066       26.6043516642
  C         7.1933726058        5.0938577404       25.3100003328
  H         7.9300074155        5.4343940289       27.2668085484
  H         8.4259618917        6.7274994817       26.2451068860
  C         6.6946384651        3.7569283389       25.8497603448
  C         7.5558392859        4.4759151786       23.9773965837
  C         5.9838682134        6.1339437063       25.0704301502
  C         6.9555182345        2.6315963482       25.0409342315
  C         6.1828097705        3.3307720058       27.1082735088
  C         7.4415096211        3.0878009179       23.8424231745
  C         8.1320592093        5.1283941981       22.8808470969
  H         6.2714914317        6.7867003653       24.2407298562
  H         6.0846391784        6.7144029852       25.9267381458
  C         4.6583025884        5.4569812989       24.7968844734
  S         6.5454525796        1.1429573462       25.7542124000
  C         5.9725785634        2.0174100065       27.1315540657
  H         5.8184155459        4.0188958714       27.7862429864
  C         7.8519737418        2.4533836779       22.6984011315
  H         8.1238501818        6.2706752649       22.9490894075
  C         8.4635639239        4.4543175430       21.7165540055
  H         4.5690903626        4.7913500316       23.9507898905
  H         4.2396262494        4.8772471406       25.6451433493
  C         3.5916364806        6.3903972469       24.4818661977
  C         5.6990315262        1.2579508970       28.4772299777
  C         8.3471211335        3.1347009053       21.5691743255
  H         7.7457885951        1.4459873526       22.7283712681
  C         8.8947557340        4.9006465362       20.4745021054
  H         3.0712176503        5.8984284046       23.6160295811
  H         3.8913999400        7.3024782064       24.0584310317
  C         2.6505616488        6.6713023711       25.7254891135
  C         5.6812081784       -0.1674569152       28.6906213494
  C         5.3190488133        2.1173600631       29.6642042823
  C         8.7236617757        2.4678143761       20.3800174291
  C         9.0305097385        3.7600712319       19.6684608804
  S         9.1891939483        6.4099471133       19.7391501658
  H         1.9136322819        7.3981100400       25.6614942245
  H         3.3512659238        6.9763452240       26.4349122514
  C         1.8528649041        5.4712156004       26.2423735229
  N         5.9238810878       -1.0858030888       27.7397192601
  C         5.4479141181       -0.6179417540       29.9148951347
  C         5.0039113996        1.5197171246       30.9067628089
  H         5.2279745744        3.2485080460       29.5404913444
  C         7.6256158009        1.6090723887       19.7390123630
  C        10.0644192136        1.6546393826       20.6333040631
  C         9.3981118801        4.2186782628       18.3464777907
  C         9.5546384362        5.5457825652       18.2566286196
  H         1.2788486790        5.1353566206       25.4319794630
  H         2.3635882974        4.6365832102       26.4994982618
  C         0.8989667560        5.6580548306       27.4560476130
  S         5.6242916429       -2.5346216583       28.3196455301
  N         5.6069364092       -2.0303744814       29.8700109947
  C         5.2762446535        0.1289878040       31.1419331639
  H         4.4717794105        2.2218491463       31.6803178044
  H         7.2341415520        0.9270753348       20.5696897511
  H         8.1136899511        0.9143071499       19.0280152492
  C         6.3546455129        2.3593262785       19.3884679795
  H        10.1902773667        1.0214353665       19.7850574515
  H         9.8623534558        1.0423561316       21.4288032344
  C        11.3855270421        2.4622370119       21.0294744210
  H         9.6833136561        3.4387346088       17.7289087950
  C         9.7792955259        6.3200051098       17.0286619689
  H         0.3336405637        4.6399658009       27.4569233923
  H         0.2998916562        6.6408722152       27.2625959882
  C         1.6065361469        5.5910390108       28.7935800116
  C         4.9895223711       -0.5622004141       32.3329064768
  H         6.5744650143        3.2315418455       18.6802779852
  H         6.0145183091        2.8853610684       20.2739401581
  C         5.2896496681        1.5183795865       18.7317260803
  H        11.2847985039        3.2249567193       21.7350114065
  H        11.7162692080        3.0908548005       20.1758531380
  C        12.4280439899        1.5420211521       21.5428329557
  C         9.9028865452        7.7106307933       16.8329359732
  C        10.0309513166        5.4069302012       15.8170803784
  H         2.1107660521        4.6219751059       28.7226488852
  H         2.2959742455        6.4580378695       28.9620313725
  C         0.6964891143        5.4123407715       29.9616378704
  H         5.3250636135       -1.5650851839       32.2804005165
  C         4.6652807411       -0.2294356795       33.6447644118
  H         4.7244987193        0.9475933508       19.3807689992
  H         5.8238780480        0.7370611676       18.1273766938
  C         4.2682671387        2.2392640300       17.8432486227
  H        12.2237610636        0.7615623766       22.2804667266
  H        12.5365882449        0.8039644989       20.6960779421
  C        13.6010033370        2.4214992033       21.8767497845
  N         9.6825681463        8.6555228792       17.7970027767
  C        10.1806002156        8.2210700638       15.5564239839
  C        10.2351355821        5.9814569736       14.5032364468
  H         9.7981318580        4.3975536917       15.7444361687
  H         0.1768105880        6.3156331507       30.2561151369
  H        -0.0526455327        4.6063452592       29.9880052090
  H         1.3104373453        5.1741681487       30.8868745265
  S         4.2100695541        1.3502498984       34.2630825889
  C         4.7929362435       -1.3137482833       34.6238661853
  H         4.0274561139        3.1049076171       18.5382843708
  H         4.8202946226        2.5777411138       16.9297796769
  C         3.0547285118        1.4731203573       17.5668220225
  H        13.2083615415        3.1670193703       22.6179196080
  H        14.0107805934        3.0134668084       21.1096508991
  C        14.7175264994        1.7290327080       22.7190615429
  S         9.9126464707       10.1276546781       17.0864125864
  N        10.1949851356        9.5608857025       15.5678815048
  C        10.3765728075        7.4269635938       14.4094569702
  H        10.4332447688        5.3957826493       13.6073116377
  C         4.2943778972        0.5618520744       35.7938098216
  N         4.4738182820       -0.7449136870       35.8302630764
  O         4.9356107314       -2.5227885760       34.4272571803
  H         2.5587314603        2.1192542395       16.9057637808
  H         2.3376566550        1.6786280494       18.3247687584
  C         3.1260046053        0.0810177110       17.0460134948
  H        14.2160225254        1.2870521748       23.6112551266
  H        14.9735196614        0.8571053934       22.1138657352
  C        15.9500392432        2.6286795940       22.9172789603
  C        10.7071601303        8.0973873054       13.1368614389
  S         3.7137935234        1.4018357877       37.3255917634
  C         4.4557506182       -1.5718833268       36.9720111816
  H         2.4406982502       -0.1099850464       16.1769628706
  H         4.1574090575        0.0734016256       16.5608839826
  C         2.5854695932       -0.9285744061       18.0290662757
  H        15.7070440460        3.1864985258       23.7821817218
  H        15.9806832600        3.3083700718       22.0988852645
  C        17.2747630935        1.8362638950       23.1434402448
  H        10.5117802955        9.0902922438       13.1414131485
  C        11.2610224306        7.6462690699       11.9957969218
  H         3.6601407421       -1.4087908413       37.6281588880
  H         4.2573721463       -2.6124452870       36.6955545677
  C         5.7027174660       -1.4177529979       37.7508352311
  H         2.1189733376       -0.4548985497       18.7996987105
  H         3.4803844512       -1.4638725587       18.3358440798
  C         1.8415210291       -2.1959998067       17.4773348840
  H        17.8960500495        2.2633370047       23.9638100149
  H        17.0158490788        0.7395352790       23.3024556943
  C        18.0321927726        1.9758974664       21.8668334630
  S        11.8752672628        6.0391168474       11.5848255481
  C        11.5474264108        8.6186803018       10.9027320005
  H         5.8493247676       -0.4084193037       37.9603678693
  H         5.5802931380       -1.9417272152       38.6406810225
  H         6.7435277758       -1.7627461564       37.2773054656
  H         1.2347307481       -2.6813633548       18.1816450118
  H         2.5540472120       -2.9216681715       17.1372764494
  H         1.0501055097       -1.8627041494       16.7970989086
  H        18.2634076635        3.1117613071       21.5398803657
  H        17.4654231638        1.6400347974       20.9708251104
  H        18.9959586479        1.4670857453       21.6369970961
  C        12.2350637859        6.7017539134        9.9733271956
  N        12.0320890146        7.9997046634        9.9000461596
  O        11.3579946584        9.7894459634       10.9636317260
  S        13.0701250278        5.8211961539        8.7437279368
  C        12.3900894233        8.7343636963        8.7052506826
  H        12.6601105517        9.6660850073        8.9951223829
  H        13.2208985637        8.4484845289        8.0335745326
  C        11.1658885536        8.9869769207        7.7318992992
  H        10.1178440363        8.7441540477        8.1910490552
  H        11.2439522351       10.0133777191        7.3654461324
  H        11.1582809124        8.2191216464        6.8852602496
  H         3.8646605175        0.5839724630       12.3872107570
  C         3.7401028624        1.6281714553       12.5990973115
  H         4.5674517965        2.2229801019       12.7921311561
  C         2.9250331584        2.1365207870       11.3964038797
  C         2.9113559421        1.8133874861       13.8560102346
  C         3.9770111008        2.4691387761       10.2585970025
  H         2.2678088732        2.9516860908       11.5271222042
  H         2.3315557138        1.2107300222       11.0848550569
  H         1.9802596597        1.1662077623       13.9524278951
  H         2.3326059937        2.7504571656       13.9274987338
  H         3.6124560772        1.6019903056       14.6712388150
  C         4.7826864403        1.2289131681        9.8462018837
  H         3.3434299110        2.7364738797        9.4332875460
  H         4.4909569816        3.2476803747       10.6545195924
  C         5.5029525916        1.4456860467        8.4528635375
  H         3.9509750154        0.4592829444        9.5754016432
  H         5.4883783737        0.9283273226       10.6508985885
  C         6.7267838242        2.3949337584        8.4221913246
  H         4.8020788177        1.8738333515        7.7208712187
  H         5.7870198428        0.4905359761        8.0978216541
  C         7.9842620739        1.7123307020        8.7856151008
  H         6.6975210145        2.9084161812        7.4616658293
  H         6.6484372886        3.1740737163        9.0260095099
  C         9.2841781431        2.4569755530        9.1730260265
  H         8.3078910298        1.0567643104        7.8921719835
  H         8.0168697197        1.1041576616        9.6795268264
  C         8.8949359595        3.8632627409        9.8559847285
  C         9.6903897502        3.2682976261        7.9354505413
  C        10.3969787328        1.7354658028        9.8993778904
  C         8.9826511370        4.9370583640        9.0323008834
  C         8.4158711384        4.3227446939       11.1850818246
  C         9.6043584251        4.6285330110        7.8203044568
  C        10.1611460244        2.6796580359        6.7327855046
  H        10.0920543096        1.2721733285       10.7858365083
  H        10.6324089097        0.9332629533        9.3364308615
  C        11.6072534365        2.6451566724       10.1638015882
  S         8.4429465682        6.4137101049        9.6571162715
  C         8.1678030879        5.6705468062       11.2373518292
  H         8.3554540732        3.4799377028       11.8358468785
  C         9.9213492234        5.3063052010        6.7089999482
  H        10.1706176781        1.6512422438        6.6401973470
  C        10.4832160415        3.3490704990        5.6261144524
  H        11.3469724293        3.5502616636       10.7650307658
  H        12.0650568188        2.9328974819        9.2218758067
  C        12.6241246520        1.8662944362       10.9819018534
  C         7.6275142077        6.3487317554       12.4073238813
  C        10.3417656112        4.6856944457        5.5533028619
  H         9.8228690994        6.3586106110        6.7226818816
  C        10.8814323644        2.9664205503        4.3715853049
  H        13.4918439806        2.4414305606       11.0880106744
  H        12.9170525715        1.0156527959       10.5412492569
  C        12.1774650960        1.5729251723       12.5148235240
  C         7.5253445041        7.7920236420       12.5997566728
  C         7.2921906580        5.5266314465       13.6183172331
  C        10.7365946733        5.3863646609        4.3112021522
  C        11.0257283830        4.0770620072        3.5443856090
  S        11.2683529195        1.4980995550        3.5937034524
  H        11.2267086553        2.0898707589       12.6295174080
  H        11.9059350733        0.4388966242       12.5647317925
  C        13.1563739238        1.8225149368       13.5684530906
  N         7.7509983279        8.6976107220       11.5540274946
  C         7.2227441802        8.2840022973       13.8011796166
  C         6.7695130304        6.0302502392       14.8524092029
  H         7.3525457702        4.4763039986       13.4747594299
  C        12.0727729013        6.2281792585        4.5061726072
  C         9.5933017451        6.2922343710        3.5852019850
  C        11.3088403360        3.7075803501        2.1915011793
  C        11.6076411927        2.3704750919        2.1127276998
  H        14.0416284122        2.4995617586       13.2584204501
  H        13.6225478136        0.8471315624       13.9102412064
  C        12.4124219401        2.4309253860       14.8362876654
  S         7.5732047396       10.1775699152       12.2869891590
  N         7.3621145341        9.6209777931       13.8340326090
  C         6.9071304837        7.5140889392       14.9635716896
  H         6.5903761110        5.3508538292       15.7409423686
  H        11.9031349762        6.9099289090        5.1734474911
  H        12.3807807269        6.6763217605        3.6199314620
  C        13.2461938369        5.3630666149        5.0643777364
  H         9.3449620625        7.0571521437        4.2754182053
  H         9.9995718709        6.7568192516        2.7902794034
  C         8.3840076986        5.4667330568        3.1113942897
  H        11.4802322629        4.4553904740        1.4366745628
  C        11.8930155967        1.6575311291        0.8120898079
  H        12.2499807290        3.4848115267       14.6215190585
  H        11.4729588633        1.9527841143       15.0038618639
  C        13.2587381013        2.3582898373       16.0710284925
  C         6.6335407863        8.1572834530       16.1828666659
  H        12.8559689170        5.0627476024        5.8520557202
  H        13.5100312971        4.5208127621        4.3423751087
  C        14.4503500158        6.0881427474        5.2997216769
  H         8.1935141138        4.7161135724        3.8077583783
  H         8.7105647987        4.8433539389        2.2293237896
  C         7.1163476299        6.2869579785        2.6503136735
  C        11.8277299267        0.2721650680        0.6477144129
  C        12.1217482129        2.4165185319       -0.4490318664
  H        14.0312413731        3.1512006915       16.1770085612
  H        13.7390001096        1.3266063646       16.2015565257
  C        12.2305627382        2.6095037095       17.2174657417
  H         6.6730137261        9.2113085108       15.9491642412
  C         6.3569097437        7.8116390338       17.4943842355
  H        14.0616230453        6.9894480337        5.7123593904
  H        14.7327923710        6.3268680103        4.2661972669
  C        15.4945160730        5.2428653594        5.9812528033
  H         6.5645662901        6.6323424272        3.5579881064
  H         7.4620638210        7.2960234901        2.1509808873
  C         6.1475805104        5.6294120097        1.6067522153
  N        11.6002858628       -0.6383304401        1.6875058923
  C        12.0757503793       -0.3997464269       -0.5640459272
  C        12.3466118133        1.7513468317       -1.6271188226
  H        12.2804765670        3.3984840341       -0.4273023216
  H        11.3113671976        2.0406729877       17.1702633331
  H        11.9237034809        3.5958777523       17.3171429655
  H        12.6967323830        2.6212138255       18.2225498962
  S         6.0525827407        6.3044216970       18.0991147746
  C         6.4044979488        8.8560166290       18.5974899027
  H        15.3073631897        4.8582938689        6.9402370792
  H        15.7715486766        4.5434099839        5.3282433362
  C        16.6925077818        6.0614999589        6.3695879445
  H         6.1130159682        4.5899976580        1.7839122987
  H         6.5017975079        5.5636544213        0.7463791171
  C         4.7406525518        6.1337579014        1.5060471144
  S        11.5737660614       -2.1574795842        1.1136118681
  N        11.9496216073       -1.7352615735       -0.4252477955
  C        12.3316598173        0.3243269200       -1.7522576643
  H        12.8302145975        2.4263066874       -2.4508868495
  C         5.9976204984        6.9773603461       19.7255072083
  N         5.9635689981        8.3121532678       19.7378045841
  O         6.7421762905       10.0223747878       18.3086356452
  H        16.9814507532        6.6524230570        5.4671757767
  H        16.4771108084        6.8733233293        7.1100027824
  C        17.7481974379        5.1406737280        6.8746820497
  H         4.1188439673        5.4996000080        0.8894317449
  H         4.4081691951        6.1990448690        2.5429804054
  C         4.8104558721        7.5909195162        0.8914290779
  C        12.4541808839       -0.4006441405       -2.9497555493
  S         5.4779264427        6.1119505015       21.2073920342
  C         6.1640257495        9.0913130419       21.0072108325
  H        17.6143476374        4.7318400052        7.8781436832
  H        17.6573635966        4.2397546731        6.2507160519
  C        19.0483495837        5.8788240124        7.0585838394
  H         4.2324212356        7.4678454335       -0.0524126136
  H         5.9236528072        7.8132297718        0.6033149480
  C         4.1450799717        8.6903671781        1.7322297553
  H        12.0504020588       -1.4333829220       -2.9751172056
  C        13.0616215764       -0.0923811283       -4.2368025867
  H         5.4197919114        8.9450524785       21.8228754411
  H         6.0083784538       10.0970090486       20.6802708479
  C         7.6818179509        9.1714694259       21.4930270436
  H        19.6913230753        5.1930831177        7.6274804383
  H        18.8539345516        6.8657177451        7.7587084750
  C        19.6861613343        6.1299166010        5.7294139354
  H         3.0812335262        8.3905272421        1.8937783663
  H         4.6374352787        8.8037153254        2.7504914768
  C         4.3221953560       10.0278597612        1.0197445988
  S        13.5672562784        1.4696250461       -4.7056340750
  C        12.9437227217       -1.1776865648       -5.2155541111
  H         7.9503046040       10.1775746167       21.9476015551
  H         8.3677385432        9.2262385925       20.6293619299
  H         7.9363264521        8.4390611447       22.3206431087
  H        20.8329290030        6.0603654743        5.8083412123
  H        19.3584592279        5.3814965069        5.0071767510
  H        19.2753911168        7.0179064265        5.2343372487
  H         3.7621338922       10.9064640963        1.5322971492
  H         5.4266110526       10.4175919666        1.1794894232
  H         4.0507605063       10.1210990870       -0.1060408150
  C        13.8654344474        0.5398613039       -6.2384018633
  N        13.4886596712       -0.7249836592       -6.3625499354
  O        12.5824803874       -2.2490546620       -4.9459584831
  S        14.4982159148        1.5286965994       -7.6559536137
  C        13.5581935335       -1.5452448125       -7.5784268559
  H        13.6879706516       -2.5821565875       -7.0970113722
  H        14.5280029461       -1.3233790096       -8.0926777170
  C        12.3838358779       -1.3739223084       -8.4426467539
  H        11.8821471906       -2.2700210026       -8.2224055454
  H        12.7118640565       -1.2584543329       -9.3714490334
  H        11.7213145088       -0.6343301320       -8.1986420462
