352
 i =   123400, time =    61700.000, E =        98.3436766956
  H         9.8977901951        6.2039593874       31.9155896616
  C        10.8471317339        6.6142846776       32.0744361680
  H        10.5766387134        7.6305718975       32.1655559314
  C        11.6193248455        6.2557445197       30.7542866444
  C        11.3345934397        5.8999105110       33.3461645628
  C        10.8319162897        5.2784333671       29.8605022186
  H        11.6096508265        7.2331637067       30.2187698544
  H        12.5943183126        5.8493033723       31.0805755467
  H        10.4925959311        5.9303109045       34.0414893485
  H        11.5981864983        4.8901187830       32.9772286708
  H        12.2361120122        6.3772343172       33.7764988437
  C        11.4173323387        5.2475712859       28.4169010983
  H         9.7329924587        5.4079167579       29.8174221728
  H        10.9478224425        4.2116995599       30.2264084619
  C        10.6202010501        6.1028576923       27.4208585581
  H        12.5266518495        5.4670105226       28.4517560549
  H        11.4137503954        4.1816675822       28.0920866700
  C         9.6280941251        5.3378174331       26.6003630856
  H        11.2806468992        6.4594674513       26.6910475848
  H        10.1571889915        6.9009146581       28.0252423361
  C         8.3512540276        6.0756173223       26.5329125605
  H        10.0472698749        5.2132068109       25.5789636312
  H         9.5600654571        4.3178335333       26.9329112940
  C         7.2115896447        5.3128964649       25.7246552680
  H         7.9484926590        6.2858601403       27.5090739766
  H         8.5331100086        7.0525359663       25.9948983577
  C         7.0073834287        3.9421521710       26.3578797640
  C         7.6441608595        4.6291279556       24.4092996023
  C         5.8258444705        6.0998453459       25.7399021152
  C         7.2543820789        2.8724173285       25.5140121046
  C         6.5595354497        3.4913099192       27.5987003597
  C         7.6505615941        3.3040952730       24.2864327786
  C         8.1333936081        5.3403959224       23.3298708676
  H         5.8665067910        7.0611158134       25.1462995981
  H         5.6686834576        6.2646836692       26.7962078712
  C         4.6283359585        5.2809757612       25.2052752290
  S         6.7917905135        1.3226372180       26.2190189998
  C         6.3373474605        2.1287559711       27.6559504880
  H         6.3466654581        4.2319859490       28.3455655039
  C         7.9260319266        2.7000682066       23.1428370450
  H         8.2083082896        6.4429020727       23.3643924167
  C         8.4880153515        4.7032724057       22.1806629908
  H         4.8695123931        4.8217543450       24.2610853184
  H         4.3150018701        4.4509440749       25.7923286560
  C         3.4392620925        6.1477555979       25.0666562647
  C         5.9332789157        1.3240061172       28.9104057405
  C         8.4246733470        3.3725219600       22.0207652009
  H         7.7943604379        1.5663305691       23.0700617882
  C         8.8913435598        5.1187470012       20.9088897371
  H         2.7070161253        5.6536468396       24.4821594091
  H         3.5864278838        7.1188142164       24.5119689788
  C         2.7642894724        6.4937205428       26.4512869660
  C         5.9241196425       -0.0528143054       29.0986712861
  C         5.6150723450        2.1040578885       30.1093430422
  C         8.8347737687        2.6465239321       20.8189499444
  C         9.0989796208        4.0142249340       20.1213119856
  S         9.3018788928        6.5623312678       20.2534281751
  H         2.3462853618        7.5054829712       26.4077308479
  H         3.5242416727        6.5921660333       27.1639085308
  C         1.7540362448        5.3377785107       26.8866271313
  N         6.3727082510       -0.9957105382       28.1934283985
  C         5.5795818570       -0.6720377283       30.3220688826
  C         5.2542662415        1.5584801151       31.2658974996
  H         5.5905218736        3.1927223038       30.0547431030
  C         7.7505593807        1.9046971256       20.0222764919
  C        10.1418341549        1.8146129454       21.0065402429
  C         9.4187255730        4.4089130950       18.8415071508
  C         9.6290086784        5.7568510962       18.7805820385
  H         1.1156355056        5.1629735690       25.9829031773
  H         2.4137557028        4.4276391879       27.0025849368
  C         0.9310831765        5.6573806868       28.2016523308
  S         6.2151694278       -2.5302119610       28.7893303698
  N         5.7019164301       -2.0988549663       30.2831908651
  C         5.2275137530        0.0904461421       31.4432536853
  H         4.9687752975        2.1657243464       32.0528176502
  H         7.2887876514        1.1539509156       20.6838550517
  H         8.2015438808        1.5063020394       19.1485336946
  C         6.6705776034        2.8484725581       19.5020288864
  H        10.5463049967        1.3186825173       20.1532681835
  H        10.0346647358        1.0823524565       21.7575334262
  C        11.2845297099        2.7288469091       21.4974290778
  H         9.3911006876        3.5799654563       18.1951195409
  C        10.0123313574        6.4507481491       17.4401576149
  H         0.2549617340        4.7799425145       28.2637327722
  H         0.2651685526        6.5048164159       27.9348400056
  C         1.6792071399        5.6968042013       29.5541417285
  C         5.1180454109       -0.5194430508       32.7060291994
  H         6.9036857047        3.1782039995       18.5210156827
  H         6.4686414307        3.7952476380       20.0919454048
  C         5.3528378698        2.1951726685       19.4255996851
  H        10.9540745840        3.2301456153       22.4080140746
  H        11.5772333549        3.5514722539       20.8083446545
  C        12.5342426221        1.9385125982       21.6936348415
  C        10.0050731978        7.8688577383       17.2789188985
  C        10.4208289247        5.5971981228       16.3438757448
  H         1.5473469173        6.7035281733       30.0199490543
  H         1.2931731011        5.0611042016       30.3448255300
  C         3.0566723600        5.2766961185       29.6747154175
  H         5.2731167218       -1.6123949568       32.6800264594
  C         4.7188013801       -0.0194246365       33.9552552541
  H         5.1015576254        2.2389672660       20.4877695250
  H         5.4232155056        1.1650465510       18.9755804566
  C         4.5543845465        2.9866118833       18.4021462690
  H        12.4673504525        1.0680551010       22.4225605344
  H        12.7822532333        1.3918128002       20.7846237271
  C        13.7558895890        2.8335648707       22.1638286759
  N         9.8028324928        8.8359391761       18.2367400302
  C        10.2799257351        8.4416040884       16.0066670927
  C        10.6777036122        6.1763148337       15.0992854948
  H        10.4515919991        4.5822708190       16.4188846301
  H         3.0957641282        4.9901104505       30.6867578667
  H         3.2585010631        4.3110218562       29.2109154322
  H         3.6916152879        6.1505598334       29.5464273110
  S         4.2301184743        1.5509676064       34.4266705467
  C         4.7689090086       -1.0652568768       35.0419210468
  H         4.6405500292        4.0437706795       18.5340914800
  H         5.0467832172        2.9645332297       17.4326744398
  C         3.1340440049        2.5533244200       18.3469919714
  H        13.4529646093        3.2818637917       23.0819904139
  H        13.9715113551        3.5299506145       21.4079495566
  C        14.9611618153        1.9935978780       22.5750338747
  S         9.6975322207       10.3008930474       17.5200452487
  N        10.2215081445        9.8667901853       15.9997935279
  C        10.6687913060        7.6224058373       14.9027270171
  H        10.9983329935        5.5294128532       14.2760755641
  C         4.1303507249        0.8838264474       35.9897698788
  N         4.3864569147       -0.4217510973       36.1820883052
  O         5.1028477813       -2.2485596699       34.9744976685
  H         2.5291264890        3.2514031648       17.6960520560
  H         2.5904408306        2.6887945794       19.2670729916
  C         3.0254654574        1.1033514120       17.8173114859
  H        14.8944295820        1.3738754180       23.4958228431
  H        15.0515774038        1.2991464337       21.6740209960
  C        16.2232876555        2.8054495469       22.4793074840
  C        11.0578466833        8.3292867730       13.7254190578
  S         3.6175116127        1.8018393875       37.3879034180
  C         4.4102495720       -1.0739655793       37.4396150971
  H         2.3664244640        1.0885467231       17.0093362412
  H         3.9157059070        0.5814201955       17.5609292680
  C         2.3690596244        0.2475752677       18.8493045511
  H        16.1253624462        3.7257531239       23.0735035713
  H        16.3729959039        3.0633059706       21.4831249502
  C        17.5242574048        2.1986693223       22.9500963256
  H        10.8539711702        9.3624555984       13.7321227543
  C        11.4155446787        7.8806669410       12.4504853259
  H         3.6188680552       -0.6944106447       38.0931035523
  H         4.3246837235       -2.1532387065       37.2516610202
  C         5.6953241432       -0.9828225275       38.2160750198
  H         1.4012198440        0.7179101897       19.1443522118
  H         2.9582731291        0.1840964443       19.7868427789
  C         1.9778184475       -1.1710799904       18.4650499258
  H        17.6771869915        1.2443087584       22.3652121418
  H        18.3991421106        2.7658396875       22.6222130327
  C        17.5392436874        2.0164311641       24.4569451795
  S        11.9198872673        6.3194784813       12.0312073568
  C        11.6736865841        8.8744096733       11.3939238736
  H         6.0078542374       -1.9405110201       38.6345990722
  H         6.4552321610       -0.6292976914       37.5819495441
  H         5.7154569482       -0.3459801578       39.0841061389
  H         2.7911441905       -1.8878415672       18.5894501513
  H         1.5667368043       -1.1850329568       17.4703472588
  H         1.2978812224       -1.4650941418       19.2052421024
  H        17.0392369413        1.1533711885       24.8373471548
  H        17.1217096501        2.8345478431       24.9862970010
  H        18.5259560662        1.9025330828       24.6955972541
  C        12.3173052021        6.9114348004       10.3860359616
  N        12.1214875390        8.2053751376       10.2918776834
  O        11.4830918699       10.1045151492       11.6262967635
  S        13.1493831158        5.9230903159        9.1629011862
  C        12.6088745286        8.9476564693        9.1326087754
  H        12.5215643085       10.0427681768        9.1837598302
  H        13.7372010924        8.9367447797        9.0611391665
  C        11.8173383802        8.6213790236        7.8538813255
  H        11.5801416484        9.5175627972        7.3287239128
  H        12.4683943621        8.0410239343        7.1562871293
  H        10.9932728797        7.9613150718        8.1468509869
  H         3.1963905772        3.6716562186       12.0750447101
  C         3.2360654964        2.6064197959       12.2901433647
  H         2.4606746684        2.3793800761       12.9714541605
  C         2.8701626445        1.9010266770       10.9578301573
  C         4.6458410557        2.3566408810       12.9313466969
  C         3.7918555977        2.2756951619        9.8129980149
  H         1.8760990389        2.1821010088       10.7634071890
  H         2.9425563900        0.8129797678       11.1815275973
  H         5.4908714279        2.5991414084       12.2105371734
  H         4.8155380033        1.3894268322       13.3365919297
  H         4.6464986661        2.8797668315       13.9334890772
  C         4.7143259589        1.1388696404        9.2812543961
  H         3.1471490712        2.4854031981        8.9830704575
  H         4.4517399213        3.1416890406       10.0301341316
  C         5.6156347981        1.6583946781        8.1510096009
  H         4.0375504111        0.3907043495        8.8760900202
  H         5.2182206704        0.5997214759       10.0573452511
  C         6.8141902410        2.5806449964        8.6542006486
  H         5.1559990026        2.1403210359        7.3757469648
  H         6.0025623649        0.6976550094        7.7416666410
  C         8.0496362917        1.7358751524        8.9930552622
  H         7.0291491275        3.1423129405        7.7420899888
  H         6.4330806375        3.1968309483        9.4443946130
  C         9.2933918778        2.6054661667        9.2011522145
  H         8.2910935206        1.2332186137        8.0274910070
  H         7.7222104431        1.0686528823        9.7820520668
  C         8.8745546399        3.9923018398        9.8858266333
  C         9.7792073911        3.3164371595        7.9515990345
  C        10.4584896362        1.9466379092       10.0236695360
  C         9.2539900156        5.1004616586        9.1032741600
  C         8.3606691033        4.3419318527       11.1462739596
  C         9.7528764457        4.7032190659        7.8939390399
  C        10.3038850291        2.7526663505        6.8159066213
  H        10.0923738295        1.7179430652       10.9681034469
  H        10.6429511147        1.0504030830        9.4436952615
  C        11.7586142200        2.8713475664       10.3025607601
  S         9.0547052391        6.5366764945       10.0015204900
  C         8.4435988061        5.6806850770       11.3392982230
  H         8.1282851188        3.6045875226       11.8680883243
  C        10.1502279282        5.2986807679        6.7484008640
  H        10.3362742059        1.6849039335        6.6939909824
  C        10.6933335460        3.3749930133        5.6840729877
  H        11.3975579072        3.8531552101       10.6206278648
  H        12.3270729546        3.2095111884        9.3985314647
  C        12.6278751187        2.3248245331       11.3860148582
  C         7.9567036243        6.3585965417       12.5944805111
  C        10.6123517533        4.7150283582        5.6049877061
  H        10.0589079927        6.3801694026        6.5703498274
  C        11.0592243016        2.9917018817        4.4084307316
  H        13.6059084446        2.8057471539       11.3612397480
  H        12.6866626853        1.2941351930       11.2405115541
  C        12.1036871767        2.6338188879       12.7968384968
  C         7.9021352120        7.7817815341       12.7421469781
  C         7.5698910817        5.4848960175       13.7858994805
  C        10.9542754664        5.4685453031        4.3397293635
  C        11.1811728083        4.1268626293        3.6392540978
  S        11.2619029203        1.5054012534        3.6619353839
  H        11.9052094150        3.6732956801       12.9620320037
  H        11.2217805931        2.1273071667       13.0779718151
  C        13.0513915067        2.2116904285       13.9111638128
  N         8.3575630495        8.7150094346       11.7660080923
  C         7.5468895237        8.3229591863       13.9147816642
  C         7.1140548409        6.0742760141       14.9684458379
  H         7.5612872677        4.4241939507       13.7345036664
  C        12.2007703194        6.3420049292        4.4139141191
  C         9.7522302655        6.2194581273        3.7810926765
  C        11.5592670892        3.7205522998        2.3859767353
  C        11.6840102955        2.3666217058        2.2658258390
  H        14.0683268334        2.5466814930       13.8497079288
  H        13.2245290751        1.1454759567       13.6879349610
  C        12.3373042925        2.1576334464       15.2204408495
  S         8.1528860899       10.1664341492       12.4161464256
  N         7.6295368758        9.7070932766       13.9127122525
  C         7.2094079160        7.5603405546       15.1004988625
  H         6.8875459314        5.4099393435       15.8196852501
  H        11.9760188333        7.1977700146        5.1036675502
  H        12.4192990525        6.7914652644        3.4918638857
  C        13.4415175469        5.5864171066        4.9095267824
  H         9.6453683196        7.1279634034        4.3825768908
  H        10.0489962614        6.5990452688        2.8109050237
  C         8.4003050017        5.4984047182        3.5903132082
  H        11.8160908980        4.4050583893        1.5902616598
  C        11.9708657414        1.6563336905        0.9399415814
  H        11.8190248254        3.0860382294       15.4419432959
  H        11.6953220172        1.2976846363       15.2902732048
  C        13.2687197998        1.7907717739       16.3659340559
  C         6.8934830805        8.2623539180       16.2818547764
  H        13.1044493913        4.9350879354        5.6804309127
  H        13.6714899931        4.8583596427        4.0720840460
  C        14.7088391302        6.3740355320        5.3551221672
  H         7.9920849304        5.5672881011        4.5714768767
  H         8.6248891873        4.4591424611        3.4026256086
  C         7.4560413307        6.1674254193        2.5525999500
  C        11.9354875866        0.2623659774        0.8257269224
  C        12.1379569051        2.4442073840       -0.3335423353
  H        14.3215347746        2.1201268284       16.1871219859
  H        13.2412865881        0.7353655479       16.5342734935
  C        12.7807985781        2.4805214449       17.6569501761
  H         7.1710917718        9.3240819841       16.2611063591
  C         6.6302364966        7.8548902445       17.5288613612
  H        14.3552959042        7.1917887553        6.0115883943
  H        15.2827405674        6.7974265195        4.5317248108
  C        15.6377963632        5.4540735246        6.1382793909
  H         6.8995454807        6.8925743224        3.0377680570
  H         8.0270526193        6.5423459396        1.6848925267
  C         6.4390952062        5.1290182763        2.0052570012
  N        11.6084038174       -0.6091922152        1.8335377498
  C        12.1773139845       -0.3206458353       -0.3901847363
  C        12.3695896832        1.8036243217       -1.5880429880
  H        12.0599828015        3.4894810434       -0.2772841345
  H        11.7631339849        2.2873119305       17.7856993855
  H        12.8915957826        3.5739471676       17.5492534512
  H        13.2841586126        2.1079992047       18.5277268435
  S         6.5037416210        6.2102649232       18.1855624097
  C         6.4939003306        8.9466094470       18.5517856374
  H        15.1451665411        4.8735239293        6.9321654543
  H        15.9615808379        4.7430770176        5.4070663846
  C        16.8040092607        6.2205427383        6.7036521291
  H         5.8530894191        4.6905453168        2.8304474246
  H         7.1159840172        4.3645520096        1.6632551176
  C         5.5836114029        5.6737478131        0.8879207786
  S        11.5441472202       -2.0866859712        1.1517098996
  N        12.1314940344       -1.6830313118       -0.3111319413
  C        12.4321166956        0.3414556162       -1.6058275750
  H        12.5104758356        2.3298276622       -2.5271734546
  C         6.0723606183        7.0394221222       19.6870364498
  N         6.1744898404        8.3782693264       19.7235615491
  O         6.4005566388       10.1550188723       18.3804237762
  H        17.3373310840        6.7660273762        5.9308146852
  H        16.3333366067        6.9285309115        7.3620180693
  C        17.6282634614        5.0886396834        7.3408662543
  H         6.1641374558        5.7198262471       -0.0437899797
  H         4.7521686379        4.9763349282        0.6722963001
  C         4.7998031280        6.9799794594        1.2318754522
  C        12.6827636806       -0.4491973253       -2.7847374579
  S         5.4088746445        6.2289533530       21.1400618726
  C         6.2736797202        9.1774123489       20.9483309658
  H        17.0817115849        4.7027362098        8.2094558450
  H        17.6841185112        4.2720761824        6.6731854359
  C        18.9789207510        5.6920944395        7.7692536825
  H         4.4269799945        7.1430489774        2.2292524832
  H         3.8310088010        6.9310401547        0.6057418452
  C         5.3836523687        8.3331469609        0.7090846680
  H        12.3609461903       -1.5061691957       -2.7974600240
  C        13.1183392988       -0.0496952325       -3.9816077558
  H         5.5543644617        8.8767139822       21.7589295525
  H         5.9677377128       10.1892513668       20.9231300445
  C         7.7170641711        9.2071334838       21.4024004230
  H        19.5495666777        5.1027873239        8.5458584024
  H        18.8531791964        6.6369506389        8.3078572366
  C        19.9595265005        5.8938727086        6.5730742338
  H         6.3701197100        8.5887595222        1.2931091376
  H         5.6738691191        8.2419222552       -0.4412922030
  C         4.4236532299        9.4960077864        0.9967406612
  S        13.7050646854        1.5242230247       -4.4999327621
  C        13.1717223244       -1.0827089261       -5.0405844947
  H         8.4993341851        9.3085995668       20.6636932947
  H         7.9414875234        8.4449124185       22.1015254136
  H         7.7854457840       10.1479138363       21.8289273333
  H        19.4861133586        6.2986573111        5.6458264123
  H        20.6689218739        6.6972857560        6.8503536621
  H        20.4769490551        4.9619541025        6.2993825508
  H         4.9854486730       10.0261170000        1.8192223024
  H         4.1894250578       10.1696320689        0.2019858862
  H         3.4726897209        9.0990270997        1.3964592228
  C        14.1542580866        0.6820540396       -6.0056105177
  N        13.9101483103       -0.6256809008       -6.0349857636
  O        12.7706240560       -2.2570659542       -4.9542121886
  S        14.9713348076        1.3535485058       -7.4845283052
  C        13.9059974015       -1.4316005943       -7.1997173906
  H        13.9822618510       -2.4887254909       -7.0584389756
  H        14.7760405014       -1.3197740666       -7.7621040114
  C        12.6608234165       -1.1406449551       -8.0544537977
  H        12.8212296132       -1.3405380712       -9.1081005716
  H        12.2893170947       -0.1490250168       -7.8512029810
  H        11.9265043723       -1.8146456226       -7.6258676264
