352
 i =    33600, time =    16800.000, E =        97.7324534821
  H        10.0802457369        5.2869145210       31.8734306816
  C        10.5360157787        6.1013488520       32.3224991487
  H         9.8830956648        6.8938425431       32.4964446278
  C        11.6594307792        6.6767956197       31.2917974366
  C        11.2041364922        5.7067147869       33.5951599848
  C        11.7295434895        5.9010819326       29.9671661391
  H        11.2697459232        7.7123759305       31.0916001948
  H        12.6665877678        6.6014397859       31.6777002434
  H        10.7721703122        4.9453234226       34.3299916542
  H        12.0813953431        5.2246858370       33.2593202784
  H        11.4374361184        6.5795464180       34.1848464308
  C        10.4490228857        6.1338887792       29.1206982088
  H        11.9281768934        4.8146270632       30.0446239604
  H        12.5385933320        6.4576182623       29.3688333346
  C        10.6961111345        5.7993262271       27.6336366703
  H         9.6207878996        5.5248568064       29.4759801979
  H        10.2585897818        7.1697109778       29.0609413809
  C         9.4930187646        5.0922810719       26.9165260148
  H        11.5722002783        5.1785600913       27.4569959128
  H        10.9145668936        6.7165284228       27.0598820373
  C         8.2431566739        5.8939617324       26.6195436856
  H         9.8623016944        4.7411737664       25.9922533082
  H         9.2185917181        4.1566635274       27.3981196882
  C         7.0563972507        5.1104864797       26.0010437709
  H         7.9319531806        6.3045997677       27.4945989703
  H         8.4823504067        6.7591882897       25.9590775272
  C         6.7322833465        3.7006075321       26.6431272589
  C         7.4100290587        4.3172531236       24.7048510800
  C         5.7296340966        5.9296697257       25.7493567278
  C         6.9657355756        2.5744192331       25.8271059200
  C         6.2554413692        3.3209031607       27.9286916500
  C         7.2421522211        2.9266503806       24.5240125405
  C         7.8809195552        4.9204685199       23.4994165133
  H         5.8688196607        6.5284104557       24.8654199552
  H         5.5249312216        6.6850862888       26.6060097621
  C         4.4771902935        5.0105161803       25.4653405551
  S         6.8920602654        1.1063590216       26.7020575988
  C         6.3819042338        1.9554945202       28.0958591336
  H         5.9972469414        4.0604329417       28.6179833758
  C         7.6037041842        2.2705686637       23.3955410642
  H         8.0035349739        5.9846343077       23.4143009383
  C         8.2691213482        4.2471009021       22.3688497030
  H         4.7089799432        4.5717559713       24.4373228758
  H         4.2088312581        4.2066038825       26.2148152799
  C         3.1579352459        5.8274486491       25.3296357821
  C         6.1243967125        1.1559187036       29.3117212546
  C         8.1693148770        2.8800087414       22.2288176471
  H         7.5996519214        1.1663970328       23.4371132828
  C         8.7063624924        4.6375839973       21.1592405276
  H         2.5188228959        5.2672927022       24.6833106117
  H         3.3180153527        6.7696221229       24.7930199316
  C         2.4351652070        6.0823041987       26.6792754310
  C         6.0783992232       -0.2523059845       29.4239753331
  C         5.6887993132        1.9970132958       30.4662233483
  C         8.5763582073        2.2180275221       21.0168735147
  C         8.8421313114        3.5334328468       20.2999275140
  S         9.0915080478        6.1388377582       20.4285954674
  H         1.6914924376        6.8946593390       26.4992429379
  H         3.0292743821        6.5087442383       27.4840311287
  C         1.6381398379        4.8612976953       27.1354874687
  N         6.3447455414       -1.2091835574       28.4803125948
  C         5.6767458483       -0.8767016467       30.6402099808
  C         5.3908909522        1.3963941208       31.6184822612
  H         5.6853593079        3.0903147960       30.3868140865
  C         7.4558409527        1.3821977130       20.2964328247
  C         9.9091714267        1.3979256127       21.0669351843
  C         9.3711251905        3.9379631302       19.0465663771
  C         9.3617317337        5.2833608341       18.9050648671
  H         0.7658006320        4.7006599279       26.4768628865
  H         2.2784402408        4.0752380985       27.0779314929
  C         1.0426907974        4.9205313236       28.5431842794
  S         6.1980068825       -2.6490720106       29.1916702553
  N         5.6933533714       -2.2539123839       30.6429360597
  C         5.2824645292       -0.0787605113       31.7491790126
  H         5.2028882943        2.0871797411       32.3739854940
  H         7.2434411120        0.5480613084       20.9124549216
  H         7.7443197040        1.0528746801       19.3241212141
  C         6.2182044764        2.2218586620       20.0344854499
  H        10.0975439790        0.8977605657       20.0918234340
  H         9.7254403144        0.6278436164       21.7821494049
  C        11.1184353442        2.3017218590       21.4079541158
  H         9.5973945498        3.1670600293       18.3610107966
  C         9.7580191958        6.0129551017       17.6262734011
  H         0.6823655226        3.9644010727       28.7884212287
  H         0.1702268951        5.4864618112       28.3355779200
  C         1.8819894545        5.5673248860       29.5578493402
  C         5.0909041496       -0.6847516282       33.0293717978
  H         6.4064266034        3.2810145386       19.8849184485
  H         5.7357659665        2.2282644401       21.0296270738
  C         5.3924898429        1.5101174638       18.9548721303
  H        10.9209033643        2.9559748914       22.2308256345
  H        11.3177907408        2.9780549661       20.6312143228
  C        12.4079724950        1.5211844305       21.7810007542
  C         9.6969804784        7.4158834266       17.4191600531
  C         9.9758246349        5.2155766834       16.3917411111
  H         2.8863369718        5.1083787740       29.5058954093
  H         1.9962635535        6.6065583245       29.3651669769
  C         1.2098745365        5.4382191152       30.9391367079
  H         5.2713814874       -1.7176243473       33.1001798931
  C         4.9776086674       -0.2097713425       34.2904906341
  H         5.5542313942        0.5384861728       19.1529585670
  H         5.9146901666        1.4739063806       18.0223912879
  C         3.9059249055        1.9669377506       18.8883449922
  H        12.1967810692        0.9459905306       22.6487509665
  H        12.6806418385        0.8454043298       20.9953088760
  C        13.6552985878        2.4719743273       21.9869803618
  N         9.3005451431        8.3418307385       18.3681138801
  C         9.9317763661        8.0832240978       16.2278892946
  C        10.1015374229        5.9065513645       15.1721071517
  H         9.9759884406        4.1603196223       16.4568979456
  H         2.0478688787        5.4550923234       31.6508997608
  H         0.7546777216        6.3490456085       31.2764084695
  H         0.6325557035        4.5757262918       31.1654529188
  S         4.5878174330        1.4387442941       34.7779916407
  C         5.0578330776       -1.2049168858       35.4392980337
  H         3.6902539514        2.8831321938       19.4949533843
  H         3.6860243224        2.2584694187       17.8749815388
  C         2.9860148916        0.7972474171       19.1547207784
  H        13.3707255415        3.0589129571       22.8478924703
  H        13.8537285305        3.1270312805       21.0868313920
  C        14.8833553795        1.6124944490       22.4606283505
  S         9.3560796582        9.8409143875       17.7630379447
  N         9.8240681710        9.4584144096       16.2714185368
  C        10.3295376381        7.3796288456       15.0587416355
  H        10.1046943230        5.3674367115       14.2620106862
  C         4.3762265566        0.7880525553       36.4505287605
  N         4.5838525961       -0.5584026440       36.5308889643
  O         5.4082508033       -2.3774288745       35.3227567159
  H         2.0226583247        1.3117225558       19.2445132990
  H         3.2835099820        0.2871742040       20.0950015990
  C         2.9210950149       -0.3723213992       18.0942880168
  H        14.4648578857        0.7291579276       23.0317561444
  H        15.4376974293        1.2561672336       21.6133138571
  C        15.8097672945        2.3927715834       23.4664160810
  C        10.7232897633        8.0999417463       13.9016935617
  S         3.8188465064        1.7919525265       37.7732534217
  C         4.3217390789       -1.2732443775       37.7826773469
  H         2.3732201934       -0.0463315110       17.2007928134
  H         3.8836726100       -0.8309707253       17.7753656177
  C         2.0094006423       -1.5286057501       18.5741519061
  H        15.3994713528        2.4975163644       24.5359925895
  H        15.9770578457        3.3817820983       23.0558638526
  C        17.0794461273        1.6368047787       23.6095878427
  H        10.4661443650        9.1370868517       13.8680557114
  C        11.4044875482        7.7198297717       12.7457567968
  H         3.4501477267       -0.9136544147       38.3221041799
  H         4.0967805051       -2.3298024043       37.4888033596
  C         5.5540770383       -1.1282179727       38.6331787988
  H         0.9557926975       -1.1683218814       18.4609830031
  H         2.0750907819       -1.7766046383       19.6324173664
  C         2.2820830687       -2.7984169871       17.8178328585
  H        17.6453988339        2.1257501228       24.3559324632
  H        16.8846531998        0.5967673024       23.9625351337
  C        17.9988502322        1.7723178992       22.4255091287
  S        12.0071701421        6.1547227819       12.3187137282
  C        11.4469691302        8.7256134892       11.6813433504
  H         6.3130039129       -1.5992947483       38.0665804522
  H         5.6778170293       -0.0503146673       38.7778725241
  H         5.4078443198       -1.6817664361       39.5222477512
  H         1.8819996439       -2.6393822447       16.8403249438
  H         1.8501713222       -3.7711138385       18.1688142140
  H         3.3634400574       -2.9125120888       17.8568607146
  H        18.7589984458        1.0877304762       22.5446171258
  H        18.4655183567        2.7671916584       22.2475465929
  H        17.5760788203        1.4495369720       21.4922130039
  C        12.2808414115        6.8953210513       10.7454388944
  N        12.0304249685        8.2444871904       10.5991792876
  O        10.9747472568        9.8453182467       11.7950735069
  S        13.0112450324        6.0627896163        9.4173821935
  C        12.1730602276        9.0250284668        9.3886796290
  H        12.3760687155       10.0531751034        9.6475331774
  H        13.0977488916        8.6798045262        8.8935852532
  C        10.9636801047        8.7539241662        8.5096249868
  H        10.0477090082        8.8060125851        9.0857408911
  H        10.8817055909        9.5474736964        7.7412894962
  H        11.1636187388        7.7798243972        8.0639027852
  H         2.4567272422        1.4331190561       13.6030497751
  C         3.2020458064        1.5898263810       12.7913806220
  H         3.4005889253        0.5589412362       12.4206549875
  C         2.6098540173        2.2966359476       11.5640438308
  C         4.4365864425        2.3796997897       13.3006563482
  C         3.4447083363        2.5603269098       10.3225613815
  H         2.2139842934        3.1809681025       12.0196243891
  H         1.8821413361        1.6481747917       11.2207686260
  H         4.2087707806        2.7077972886       14.3442473913
  H         4.5321516921        3.2738764514       12.6986305627
  H         5.3239923204        1.7508728364       13.2487758387
  C         4.3600865940        1.4457522855        9.9875877129
  H         2.7315914828        2.7952295984        9.4304827280
  H         4.0684863282        3.3539820010       10.6341362401
  C         5.0935462363        1.5794105979        8.6595038506
  H         3.6410740690        0.5630289920        9.8935449572
  H         5.1108137438        1.2344363666       10.7428385797
  C         6.3798333519        2.3142224200        8.8720080354
  H         4.4313225836        2.0421796146        7.8980908948
  H         5.2650627538        0.5342995846        8.3810708943
  C         7.6323233385        1.5068413976        9.2490118587
  H         6.6336318311        2.8511546837        7.9332757007
  H         6.0063879803        2.9561026722        9.6243710871
  C         8.9413525201        2.3518503232        9.4004063235
  H         7.8690883691        0.7929396941        8.4847013670
  H         7.4507741527        1.0897537619       10.2336991664
  C         8.5082882173        3.7048782246       10.0780518227
  C         9.4327405316        3.0799564744        8.1797024400
  C        10.1384756597        1.5622186591       10.0743530692
  C         8.7367226647        4.7743460868        9.2709588270
  C         7.9629725987        4.0540396567       11.3242702862
  C         9.2911701454        4.4429225770        8.0276434800
  C         9.9184109962        2.4348456093        7.0603353814
  H         9.7284208553        0.7845656276       10.8009097891
  H        10.6445562589        0.9980294214        9.2862305732
  C        11.1813212618        2.4957776486       10.7116774422
  S         8.4022078623        6.2605263045       10.0287721621
  C         7.7663505219        5.3898253440       11.3711992842
  H         7.5939490536        3.3092707361       11.9423770833
  C         9.7015134139        5.0768190229        6.8623540358
  H        10.0484253562        1.4195703209        7.1413364462
  C        10.2533698697        3.0609667896        5.8996164024
  H        10.6742333073        3.2757077224       11.3362915750
  H        11.7345665904        3.1156203858        9.9920670050
  C        12.1019058285        1.7210990388       11.7048003590
  C         7.2640865398        6.0812990956       12.5507447720
  C        10.2212921610        4.4422163231        5.7652547802
  H         9.4594978691        6.0957522647        6.8052420063
  C        10.6995247110        2.7211222996        4.6085853028
  H        13.0159050149        1.4931296954       11.1752150598
  H        11.5357987280        0.8562888505       12.1061591844
  C        12.5331169776        2.5572111457       12.9097998162
  C         7.3876253024        7.4326991054       12.8378563197
  C         6.8575246073        5.3015078533       13.7073718864
  C        10.4900014967        5.1196253813        4.4886532914
  C        10.8838238264        3.8303915100        3.7591987388
  S        11.0787574355        1.2647650265        3.8109420788
  H        13.2493213533        3.3945237775       12.6815228558
  H        11.7004750524        2.9774282474       13.5229117156
  C        13.2471491807        1.6684452837       13.9605686255
  N         7.8176958494        8.3776649592       11.9522629166
  C         7.0456766072        8.0458270628       14.0755643340
  C         6.5315790636        5.8903124126       14.9869731564
  H         6.8033373665        4.2242890639       13.5934823031
  C        11.6713186875        6.1428876977        4.4768123921
  C         9.3179436150        5.8281640639        3.7783624635
  C        11.3153372305        3.4389232116        2.4503543914
  C        11.3994274264        2.0866299460        2.2804719324
  H        13.9205411586        2.2422097921       14.4878375321
  H        13.6909356329        0.8168541776       13.4287095455
  C        12.3700679533        1.0453961881       15.0839090541
  S         7.8696189989        9.8223981537       12.6250317636
  N         7.1846253836        9.4231667580       14.0676386605
  C         6.6902720899        7.3475339229       15.2786075436
  H         6.1139095987        5.2502353352       15.7291998298
  H        11.3124501361        7.1199777446        4.8805080807
  H        11.9485855750        6.2889559856        3.4521501836
  C        12.8250126865        5.6558106624        5.3709560423
  H         9.1355877986        6.8491572274        4.2306720434
  H         9.6199342102        6.0292342269        2.8086335522
  C         8.0074488710        5.1424071340        3.6998770565
  H        11.4609196521        4.1766528062        1.6840592146
  C        11.7118693317        1.4052147408        0.9752883191
  H        11.3616182720        0.8413278920       14.7860685776
  H        12.8028544992        0.0815323523       15.1721908577
  C        12.5238135516        1.8912344907       16.3847180530
  C         6.3984657366        8.0147500367       16.5273339983
  H        12.5926590333        5.8249365397        6.4462684131
  H        12.9649385073        4.6471516900        5.1667200592
  C        14.2342450739        6.1840617734        5.0265875461
  H         7.4400494293        4.9853453956        4.6717358575
  H         8.2602351745        4.1167837613        3.3332814559
  C         7.0532515109        5.7831111416        2.6366515578
  C        11.7117014801       -0.0351644825        0.8697715727
  C        12.0509869010        2.2287843656       -0.2419854067
  H        12.2502585969        2.9164899613       16.1608934235
  H        13.5507883714        2.1109301849       16.6813170342
  C        11.8721890880        1.2335518470       17.6435151432
  H         6.4128447649        9.0660938806       16.3966155745
  C         6.2412451245        7.5805122412       17.8117033070
  H        14.3737433780        7.1295748143        5.4850661079
  H        14.3498030342        6.4342229674        3.9721059047
  C        15.3385748804        5.2006573898        5.5439025434
  H         7.5476264877        6.5099644111        2.0008805650
  H         6.7445617340        5.0855059294        1.8758603971
  C         5.9107036200        6.5027508862        3.2468396148
  N        11.3142408846       -0.9168363983        1.8330850314
  C        12.1209075649       -0.6174676801       -0.3066767832
  C        12.4703340404        1.5691313374       -1.3798647501
  H        11.7946635784        3.2940072122       -0.2083757823
  H        11.9720441146        1.8337010953       18.4784382366
  H        12.2842265227        0.1933923926       17.6951533415
  H        10.7696394474        1.0809486231       17.3699162925
  S         6.0105001177        5.9016011846       18.3695314506
  C         6.1002700826        8.6265717871       18.9194929128
  H        14.9050533956        4.4545986860        6.1419619856
  H        15.7263134599        4.7319263261        4.6014876400
  C        16.4880059842        5.8965401957        6.2012595167
  H         6.1930470084        6.9056688762        4.2136704406
  H         5.1677988828        5.6536133077        3.5003458444
  C         5.3072436411        7.5876604870        2.3348431565
  S        11.4473186844       -2.3652634465        1.1939549136
  N        12.1581730564       -2.0079194742       -0.1584983454
  C        12.5384602162        0.0422081290       -1.4928902197
  H        12.6726115551        2.1317963163       -2.2972307235
  C         5.8107521641        6.5457885444       19.9671033560
  N         5.7971329268        7.9128442234       20.0306076090
  O         6.0442610068        9.7921093725       18.7404893034
  H        17.0924730746        6.3941757747        5.4406996693
  H        16.2473838163        6.6457544748        6.9566099357
  C        17.3618613561        4.8905099949        6.9431932036
  H         5.9730990414        8.4095144061        2.3319323019
  H         5.3089176767        7.2168047981        1.3611879798
  C         3.9257742190        8.0621015562        2.5991523951
  C        12.8833519244       -0.7247720504       -2.6108294596
  S         5.4985432281        5.6716051529       21.4528805653
  C         5.6354786970        8.6362829336       21.2803860168
  H        16.8054354271        4.4714643026        7.7430181076
  H        17.6146107339        3.9776981631        6.3408871021
  C        18.6696291933        5.3910308828        7.4507858771
  H         3.5281628085        7.8230380325        3.5826092415
  H         3.2752133089        7.5551933701        1.8629215486
  C         3.7586602365        9.5853148770        2.4756527146
  H        12.6500552537       -1.7875081348       -2.5003072674
  C        13.4013486234       -0.4207968961       -3.8707241534
  H         4.8913002761        8.1439811075       21.8368198002
  H         5.3811659708        9.7124754412       21.0849147714
  C         7.0439231519        8.6974671760       21.9294053865
  H        19.1767649731        4.6560029378        8.1017527851
  H        18.5219281388        6.2295391566        8.1024906963
  C        19.7439990709        5.7842396766        6.3679767077
  H         2.7112181886        9.8473375454        2.5492401872
  H         4.2058005797       10.0898333031        3.4000753413
  C         4.3632191058       10.2318903843        1.2495087986
  S        14.0002633250        1.1644755695       -4.2950245766
  C        13.4115200891       -1.4112902127       -4.9930989147
  H         6.9051073457        9.1624494712       22.8766417972
  H         7.8489659120        9.1725019930       21.3956633430
  H         7.4997866182        7.7058368498       22.1043236416
  H        19.6847843646        5.0297395665        5.6443120191
  H        19.5678348763        6.7188616292        5.8913286196
  H        20.7865998153        5.9498182531        6.7945472265
  H         5.3871961450        9.9925159850        0.9801087377
  H         3.7224361259        9.8149947318        0.4942502742
  H         4.1940509563       11.3455844137        1.3543619824
  C        14.3085815495        0.4403566345       -5.8444151339
  N        13.9942659921       -0.8437886359       -6.0580146934
  O        12.9226817178       -2.5208979986       -4.8942517902
  S        14.6912115947        1.3817094326       -7.2609792733
  C        14.0934955305       -1.5353487936       -7.3159815567
  H        14.3608740640       -2.5023447460       -7.0499434087
  H        14.9527278777       -1.2065918542       -7.9451188208
  C        12.8337360852       -1.6138106142       -8.0247032071
  H        12.2333342051       -0.7379215076       -7.8788434554
  H        12.2679069081       -2.4374562807       -7.7382533776
  H        13.1411276817       -1.7907193413       -9.0224208564
