352
 i =    56800, time =    28400.000, E =        99.3192107290
  H         9.8250535243        4.7166203604       31.7469820622
  C        10.2802821401        5.5604748563       32.1818194407
  H         9.4274717984        5.9603724828       32.7505935185
  C        10.8440630119        6.5418011276       31.1233899416
  C        11.4290883033        5.0565205732       33.2180956869
  C        11.4726559714        5.8518315769       29.9303921109
  H        10.0789055520        7.1058589359       30.7212484391
  H        11.5798396163        7.2447720530       31.5150721150
  H        11.2063667346        5.2352574158       34.2435324629
  H        11.4640855647        3.9897685449       33.0443325545
  H        12.3104915289        5.6696918698       33.0354595389
  C        10.2337815626        5.4030524291       28.9559082239
  H        11.9798898058        4.9533929576       30.2676780028
  H        12.1429338216        6.7055088336       29.5458626457
  C        10.6354709734        5.3167323114       27.4592489598
  H         9.7433307217        4.4784597091       29.2377694412
  H         9.4586693694        6.1678257862       29.0017176347
  C         9.6060429457        4.6697608143       26.5428740770
  H        11.6289757301        4.7865361728       27.3758143788
  H        10.8742583608        6.3674407042       27.1693267441
  C         8.4170495542        5.5597550267       26.4084515941
  H        10.1699130181        4.4520471148       25.5721327383
  H         9.3548008399        3.6300192556       26.8958755614
  C         7.2896166847        4.8633704640       25.6471217769
  H         8.0592099057        5.9008854674       27.3677111975
  H         8.7094146692        6.4981661134       25.8768409429
  C         6.9066764475        3.4876040235       26.3140959656
  C         7.6654199981        4.1030412340       24.4448994480
  C         6.0394453719        5.7579460338       25.5938297145
  C         7.1322390211        2.3665977223       25.5156427870
  C         6.4315678957        3.0469190412       27.5421943863
  C         7.5726432788        2.7579897843       24.3092995136
  C         8.0438231089        4.6888768411       23.2494706778
  H         6.2835806090        6.7293242760       24.9485818761
  H         5.7099059400        6.3270326980       26.4675925237
  C         4.8483281289        5.0923048913       24.9430956761
  S         6.7557338176        0.8457052530       26.1720868394
  C         6.2486519385        1.6960087977       27.5745173279
  H         6.2694170782        3.7851290549       28.2759448809
  C         8.0278252365        2.1316664513       23.1882648146
  H         8.3500377505        5.7395458234       23.2336727817
  C         8.4734545568        4.0897547946       22.0281539507
  H         4.9041517720        4.6263757735       23.9713493970
  H         4.4645953256        4.2185190735       25.5009771968
  C         3.5958603617        5.9458180704       24.9271110032
  C         5.6647897392        0.8927263087       28.6942314736
  C         8.5208087644        2.7295620472       22.0294469979
  H         7.8826825351        1.0567911979       23.0192959771
  C         8.9667020014        4.4690805997       20.7940574122
  H         2.8542201618        5.4468612030       24.2947376015
  H         3.8952954675        6.9196070056       24.5082910645
  C         2.8445812169        6.0502350534       26.2640418009
  C         5.5934462857       -0.4630718178       28.9193695619
  C         5.1593817233        1.8081846605       29.7626383363
  C         8.9507826464        2.0717729201       20.7453105969
  C         9.2659277436        3.3936453018       19.9869037381
  S         9.1443797525        6.0278667943       20.0573995081
  H         2.1336669083        6.8568779438       26.2002189515
  H         3.5076180109        6.1842144715       27.0723883576
  C         1.9119399486        4.7685086311       26.4876698840
  N         5.8856340360       -1.4888599842       27.9748062752
  C         5.3460362154       -0.9576807245       30.1804791076
  C         4.7671992835        1.2585768651       30.9879603864
  H         4.9064988714        2.8402522977       29.6806762517
  C         7.7561725026        1.3075543692       20.0428221787
  C        10.1957612195        1.2056668554       20.9692712693
  C         9.8026721016        3.8425133685       18.7645837997
  C         9.7496286267        5.2125128012       18.5739200407
  H         1.1300257273        4.9751656663       25.7868917687
  H         2.4667972508        3.8108612581       26.3850597616
  C         1.1728800307        4.8179092957       27.8413436419
  S         5.7800523330       -2.8911457895       28.7353743441
  N         5.4324769937       -2.3146103478       30.2276274320
  C         4.9813020972       -0.1806455796       31.2887952158
  H         4.3714412336        1.9271371152       31.7211786708
  H         7.5294074078        0.2973634470       20.4775502396
  H         8.0957378377        1.1335337430       19.0138935884
  C         6.5032348161        2.1321906167       19.7719864560
  H        10.4240889272        0.7110338128       20.0100200710
  H        10.0782590424        0.4294980110       21.7189966469
  C        11.4777237963        2.0452089016       21.3457159447
  H        10.0321972671        3.1558985284       17.9211065386
  C         9.9537094885        6.0275683436       17.3355266035
  H         0.3117291082        4.1152496883       27.6800869146
  H         0.6605773989        5.7259496066       27.9311305520
  C         2.0525586738        4.5250029148       29.1227379453
  C         4.7763953991       -0.7784986365       32.6084974785
  H         6.8235580304        2.8032813705       18.9640660899
  H         6.2224652515        2.8474371292       20.6119295387
  C         5.3369846126        1.2828147446       19.3045336886
  H        11.2872693427        2.7294371047       22.1486827481
  H        11.6016527892        2.7155224674       20.5328024711
  C        12.7112487115        1.1289236653       21.3977267385
  C         9.8453954959        7.4515582385       17.1425940495
  C        10.3267793439        5.3593548894       16.1026905114
  H         2.3929093003        3.5164597556       29.0311070461
  H         2.9921166425        5.0559626852       28.9657988199
  C         1.6315517677        4.8835420501       30.5652384516
  H         4.8689449083       -1.8245406699       32.6086435084
  C         4.4558590882       -0.3539481703       33.8575411724
  H         4.8655489141        0.7283556990       20.1025710933
  H         5.6126001765        0.5684813893       18.5424249231
  C         4.3013314255        2.2481839807       18.5700049593
  H        12.6637100750        0.5603557131       22.3820446551
  H        12.6947086364        0.4300866883       20.5402800110
  C        14.0084198487        2.0311694158       21.3170331682
  N         9.5196551777        8.2911211200       18.1880149223
  C        10.0444177006        8.1252119531       15.9663451144
  C        10.5837681617        6.0410883723       14.8680609135
  H        10.3721861591        4.2881855629       16.1653997483
  H         2.5147084393        5.1397339250       31.1284838950
  H         0.9906601927        5.7504273532       30.5284370026
  H         1.0704716539        4.1587020801       31.1767532767
  S         3.9065187430        1.1760036869       34.3390077805
  C         4.5431818633       -1.3646974395       34.9556541151
  H         4.1906167393        3.1250070510       19.1560413402
  H         4.7910546389        2.5547925482       17.6399890487
  C         2.9414580558        1.6428705285       18.4284112006
  H        13.8075638513        2.9845114781       21.8285902967
  H        14.2312525726        2.2292926182       20.2678295989
  C        15.1668492763        1.3594956687       22.0206938819
  S         9.2573381356        9.8163522870       17.5248568734
  N         9.9141412562        9.4967474781       16.0588408587
  C        10.4104006457        7.4974355332       14.7656548430
  H        10.7574666858        5.4883988503       14.0352709955
  C         3.9823798983        0.5539987866       35.9951486779
  N         4.2006867668       -0.8216139188       36.0850238197
  O         4.9848260564       -2.5621827084       34.9015656953
  H         2.4791214219        2.2511146065       17.6708501993
  H         2.4441821198        1.4040543695       19.3632165761
  C         3.0049336222        0.3036142753       17.6346617076
  H        14.9696445694        1.1397239487       23.0799017888
  H        15.4084960926        0.4038508636       21.5703683910
  C        16.3822178761        2.3368953673       22.0304691014
  C        10.6553518685        8.3216763729       13.6370777619
  S         3.3798692179        1.4495425731       37.3896985648
  C         4.2461719068       -1.5764822157       37.3136044870
  H         2.3141080118        0.3787042828       16.8675850358
  H         3.9615523788       -0.0152667623       17.1785226112
  C         2.5375972316       -0.9594223796       18.4640691691
  H        16.0237679334        3.1891599142       22.6211738517
  H        16.5728314737        2.5947471057       21.0221788822
  C        17.6478971664        1.6980711046       22.6576104832
  H        10.3174064080        9.3906000856       13.6781613944
  C        11.0628643058        8.1315695667       12.3562312944
  H         3.4781158605       -1.1552711233       37.9815299919
  H         3.9187850257       -2.6393962290       37.1258226333
  C         5.7187184864       -1.3830047852       37.9369704659
  H         1.4859204440       -0.7914096006       18.7871201044
  H         3.2782444235       -1.2120425874       19.2866775128
  C         2.5804664094       -2.1453371903       17.5224959616
  H        17.9251653102        0.7587236754       22.2668694201
  H        18.5650843416        2.2277149840       22.6153901126
  C        17.3509538003        1.3014978225       24.1405443478
  S        11.5838945616        6.6040348327       11.8287853084
  C        11.0677378094        9.1879448183       11.3261148080
  H         5.8006404958       -1.6637970462       38.9553062948
  H         6.3458074647       -2.0863608016       37.3227292287
  H         6.1260544260       -0.4141918079       37.7541585202
  H         2.0001360276       -2.9802764906       17.9762398731
  H         3.6363638645       -2.5153204040       17.4431678621
  H         2.3027404946       -1.8733629040       16.4458671467
  H        18.2645748489        1.1082816421       24.6913725500
  H        16.7324402096        0.3664373546       24.1618877888
  H        16.9692671176        2.1145417391       24.7209850829
  C        12.0358793870        7.4030395956       10.2719146904
  N        11.7471608180        8.7126331805       10.2766796148
  O        10.6882684152       10.3063389578       11.5057403126
  S        12.7980136312        6.6230154100        8.9324542324
  C        11.9061171322        9.5643051778        9.0617716440
  H        12.0835633199       10.5953034725        9.3397977017
  H        12.5619407768        9.2118981555        8.2876694751
  C        10.5583225026        9.6551692418        8.4243373717
  H        10.6414399137       10.4047339013        7.6348564893
  H        10.3702382879        8.6772254383        7.8698799678
  H         9.7157783013        9.8755307233        9.0703808346
  H         4.7545533906        1.6677324030       12.7064163844
  C         3.8128705228        2.1959641456       12.8779859290
  H         4.1180668141        3.1946793343       12.8844380316
  C         2.8689943442        1.9157467249       11.7022260252
  C         3.1646761627        1.9477881166       14.2236417005
  C         3.4715417896        2.2800991686       10.3430836228
  H         1.9553152073        2.4113093764       11.7907207139
  H         2.5972035707        0.8276958061       11.7069542329
  H         3.5603052891        1.0878906962       14.7573061400
  H         2.0997449628        1.9125302854       14.2354089787
  H         3.4342222381        2.8318970862       14.8762600472
  C         4.2557659524        1.0459625989        9.8732939616
  H         2.6634017294        2.5170837496        9.6373707602
  H         3.9637450000        3.1788491999       10.5300070070
  C         5.0995109947        1.2038921707        8.6121534067
  H         3.6524214246        0.2015497690        9.7723672119
  H         4.9303535240        0.8354044348       10.6963101038
  C         6.2424032389        2.2846341881        8.6452149327
  H         4.4064395412        1.4872320919        7.7990150398
  H         5.4914799156        0.2414271945        8.2758359751
  C         7.5909083992        1.7132642525        8.9256023841
  H         6.3378707587        2.9216650676        7.7607963330
  H         5.9521197714        2.9814891961        9.4271431087
  C         8.7464916003        2.7454237146        9.1422819350
  H         7.9230235085        0.9620167388        8.1050990460
  H         7.4770842380        1.0691728778        9.7392188787
  C         8.3307273953        4.0950445412        9.8384414936
  C         9.1676283047        3.5288755670        7.8801255161
  C         9.9527146879        2.0382492066        9.8677065071
  C         8.6134356969        5.2510049839        9.1065692423
  C         7.9997994144        4.4028495473       11.1885539846
  C         9.1059812983        4.8616747733        7.8301661399
  C         9.7147130983        2.8993187138        6.7681718009
  H         9.5719049366        1.6083761334       10.8100174124
  H        10.2633457169        1.3042880872        9.2752908631
  C        11.1836063597        3.0044619156       10.0274809904
  S         8.4352803360        6.6584928634       10.0266636709
  C         7.9399445348        5.7272444008       11.4001940752
  H         7.8146858891        3.5674750185       11.7929669160
  C         9.6123957661        5.4742121215        6.7171545089
  H         9.6215251794        1.8531987715        6.8507975264
  C        10.1023050357        3.5047345264        5.6521403630
  H        10.9199653291        4.0663541949       10.2625950263
  H        11.6195895851        3.0553637455        8.9316959456
  C        12.1494382372        2.4949328525       11.1089602753
  C         7.6736100827        6.3531398201       12.7363342652
  C        10.0857751695        4.8564870250        5.5916495687
  H         9.6525036389        6.5323750752        6.6979561006
  C        10.5432473910        3.0503402488        4.4511264987
  H        13.0080368267        3.1424020529       11.0167669537
  H        12.4429022652        1.4112725454       11.0185819266
  C        11.7017273689        2.7062832978       12.6174942834
  C         7.4732048095        7.7098335512       13.0636306576
  C         7.3033100016        5.4301582258       13.8446931925
  C        10.5390983303        5.5018404137        4.3319666684
  C        10.7207415284        4.1054641347        3.6279974950
  S        10.8984283485        1.5472367585        3.7335976199
  H        11.6336896197        3.7913814885       12.6621434846
  H        10.7766716685        2.2320216652       12.6229116567
  C        12.6371227573        2.1264671410       13.6800769404
  N         7.6669670713        8.7214930477       12.1505806493
  C         7.1289501123        8.1245086645       14.3280816061
  C         6.9423710880        5.8489422151       15.1368604828
  H         7.3610653608        4.3628198901       13.7077084088
  C        11.8694880425        6.2014888492        4.5552044627
  C         9.5249496292        6.3431106820        3.5702182429
  C        11.0323762116        3.6655963875        2.3151635722
  C        11.1861779119        2.3148466523        2.2441487371
  H        13.7228375783        2.3273954165       13.3868306404
  H        12.5110299663        1.0009950679       13.6436562488
  C        12.2620442345        2.5467438842       15.0926039671
  S         7.4808629253       10.1235427646       12.9377804510
  N         7.1317686119        9.4935361870       14.3759005340
  C         6.7237366214        7.3315517604       15.4502209119
  H         6.7432063300        5.1010114393       15.8496538711
  H        11.6531078301        6.8595887771        5.3465022481
  H        12.0414414853        6.8360245675        3.6407812694
  C        13.1344563915        5.3997057288        4.8759358782
  H         9.3198670258        7.2459102030        4.1027121595
  H        10.0081898051        6.6304484820        2.6610869922
  C         8.2969315524        5.5318114858        3.2995270608
  H        11.0942723478        4.4343203749        1.4870063230
  C        11.5229006755        1.5407754077        1.0165442536
  H        12.1605380931        3.6178981208       15.1271430483
  H        11.2916215086        2.0515438692       15.3194077372
  C        13.3513284776        2.1747123812       16.1379800733
  C         6.5652630412        7.9203350291       16.7538605575
  H        12.9546406727        4.8880010547        5.8097648907
  H        13.3320808857        4.6278094384        4.0746614979
  C        14.4267127963        6.2256953720        4.8879466105
  H         7.7852028099        5.3915475130        4.2317719610
  H         8.4195716092        4.5630589988        2.9269836466
  C         7.3944876338        6.1253068253        2.1699238311
  C        11.5919075079        0.1496609583        0.8599109718
  C        12.0561412578        2.3589518664       -0.0948167880
  H        14.0660886310        2.9823941808       16.0850081306
  H        13.8576871027        1.2110765837       15.9071518194
  C        12.7239458464        2.1544582205       17.4885234550
  H         6.5123135557        8.9954862337       16.7372880280
  C         6.4612810845        7.4601862793       18.0256207435
  H        14.4151746998        7.0677939212        5.5734830922
  H        14.5271457679        6.6975926890        3.9502182305
  C        15.6811680608        5.4479591617        5.2975492024
  H         7.8989627095        6.8246251500        1.5591101359
  H         7.1697803800        5.2519768929        1.5470587405
  C         6.1049557800        6.7066464225        2.7646768260
  N        11.2235703952       -0.7830644739        1.7784013078
  C        12.0241728597       -0.4047304053       -0.3506286955
  C        12.5117699498        1.7776180648       -1.2937722357
  H        12.1039557255        3.4735642807       -0.0130469312
  H        12.3327260369        3.1446787577       17.6426341356
  H        13.4996370021        2.0030863656       18.1846722418
  H        12.0415213598        1.4071236599       17.6753549662
  S         6.0819462728        5.8592443832       18.4458031416
  C         6.4327473923        8.3829210034       19.1638307184
  H        15.5148660371        4.4303894247        5.1687047422
  H        16.4881366510        5.6127578300        4.5714073009
  C        16.1074428420        5.7480950830        6.7042801410
  H         6.2553193288        7.5580584975        3.4732210950
  H         5.6910126604        5.8644014079        3.3469745362
  C         5.0516817889        7.0757418228        1.6916991302
  S        11.6251988586       -2.2285056134        1.1898680093
  N        11.9805487992       -1.8162875212       -0.2838819084
  C        12.4514138801        0.3074135786       -1.5526561035
  H        12.6880549807        2.4965867129       -2.0421566282
  C         5.9091372630        6.3978657251       20.1484673355
  N         6.0344700879        7.7586058398       20.3046421286
  O         6.4933333601        9.5355052793       18.9808081478
  H        16.1447990871        6.7829401243        6.8383367026
  H        15.3354911572        5.3574839681        7.3841354915
  C        17.4247708657        5.0994226769        7.1053999796
  H         5.5602405351        7.4426280290        0.8054889588
  H         4.4205699066        6.2732190065        1.3213390538
  C         3.9791405762        8.0041155503        2.2676238139
  C        12.6496419959       -0.3963019475       -2.7727311608
  S         5.4156732985        5.4933451034       21.4831345184
  C         5.9049224488        8.4949783765       21.5436613202
  H        17.3944606890        5.1077667995        8.1923472561
  H        17.5044825672        4.0975994341        6.7346418994
  C        18.6463239675        5.8302247052        6.5366533059
  H         4.2116103376        8.0458766232        3.3319709366
  H         3.0051997538        7.5784050356        2.0794420799
  C         4.1291916061        9.4131591455        1.6960542030
  H        12.4388899571       -1.4636327656       -2.6903827391
  C        13.0522099959        0.0650539035       -3.9913545952
  H         5.2113830445        7.9906806920       22.2360752573
  H         5.4374911416        9.5222932002       21.4748962317
  C         7.2393963040        8.6015435281       22.1885490760
  H        19.1751452234        6.0662748477        7.4567174618
  H        18.3442032010        6.6854324467        5.8485964997
  C        19.5404036294        4.8419932868        5.8148698764
  H         3.5338617712       10.1131352281        2.3060047530
  H         5.1694980360        9.6734286327        1.7733152907
  C         3.6752755020        9.7325286017        0.3160761344
  S        13.4017409792        1.6967047348       -4.3887264696
  C        13.2646447263       -0.9299996814       -5.0471941007
  H         7.0701123477        8.4400611937       23.2503764095
  H         7.7490832588        9.5124519392       22.0971371915
  H         7.9577114426        7.8142462147       21.8468253818
  H        19.2976592634        4.7658224862        4.7145600295
  H        20.5681907279        5.0304240064        5.9724413917
  H        19.4188475296        3.8540687498        6.1132078579
  H         3.6280263954       10.8100647139        0.2111775132
  H         4.1622787325        9.2173335114       -0.5085324237
  H         2.5974737448        9.4762902333        0.1741668065
  C        13.8892708762        1.0353817792       -6.0113897859
  N        13.8349746756       -0.3115495414       -6.1023400029
  O        12.9025939410       -2.1028786458       -4.9095645724
  S        14.7781339641        1.9654411540       -7.2875487815
  C        13.9973539278       -1.0842364754       -7.3337383614
  H        14.4097068117       -2.1236613641       -7.2314860785
  H        14.7711632666       -0.5535581711       -7.9517025447
  C        12.6561963616       -1.2500418852       -8.0569653404
  H        12.9016843421       -1.0469839612       -9.0771730158
  H        11.8774671501       -0.6329359091       -7.5240723383
  H        12.4008958099       -2.3696165551       -8.1025288022
