352
 i =    48400, time =    24200.000, E =        97.5005753080
  H        10.2919359130        4.6302965549       32.6904559610
  C        10.4453574217        5.7023463838       32.8322207334
  H         9.9112302158        5.9934466779       33.7390147906
  C         9.8672093708        6.4291594054       31.5787289495
  C        11.9740841743        5.8964061564       32.9010399160
  C        10.5991833832        6.1150771455       30.2671184325
  H         8.8105620921        6.3132420512       31.5004132537
  H         9.9723050713        7.5144299224       31.5551694801
  H        12.5680337857        5.5742713681       32.0594505885
  H        12.2294016460        6.9248612136       33.1020864300
  H        12.3601467691        5.2869514984       33.6979949529
  C         9.5429662894        6.1731409215       29.1620477271
  H        11.1542154453        5.2110162829       30.2795994160
  H        11.3620114407        6.9409450280       30.2559344486
  C        10.1877116481        5.9369884233       27.7633978470
  H         8.8219979739        5.3788923122       29.2991204531
  H         8.9368837578        7.0112988344       29.3036488389
  C         9.3348796916        5.1870282386       26.8007619313
  H        11.0887940273        5.3635397250       27.8713915328
  H        10.5625090006        6.8812185098       27.3515360770
  C         8.2112375259        6.0279699372       26.1431754131
  H        10.0171837373        4.9129327178       25.9789335220
  H         9.1388665717        4.2086769011       27.2041779093
  C         7.1772809340        5.2393142056       25.3488742035
  H         7.6469510754        6.3930108860       27.0780613394
  H         8.7222387165        6.8294057716       25.6952803090
  C         6.7921709007        4.0185712285       26.0069837218
  C         7.5886419297        4.5891367325       24.1035725634
  C         5.9330633244        6.1985389173       25.1078803707
  C         6.9013932628        2.8928927953       25.1773957192
  C         6.4811239974        3.7475161811       27.2854892111
  C         7.4558819440        3.2657920680       23.9077025901
  C         8.2089358757        5.2811963728       23.0081150901
  H         6.3266972353        6.8347981529       24.3234632480
  H         5.8417526064        6.8642420731       25.9905903209
  C         4.6084352173        5.5411878608       24.7004635441
  S         6.6263211178        1.4052458739       25.9336762106
  C         6.3060340482        2.3419363651       27.3974962516
  H         6.5644341972        4.5606363617       28.0494979448
  C         7.7911902665        2.7089479913       22.7334792283
  H         8.3369632654        6.3279920348       23.0676319870
  C         8.5379371035        4.7203553402       21.7978974280
  H         4.6066829129        5.2123425846       23.6626637416
  H         4.4374411701        4.7018390641       25.3628669490
  C         3.3826752293        6.4497480922       24.6711564135
  C         5.9480775667        1.6017820514       28.6277258054
  C         8.3049105171        3.3866259172       21.5770025509
  H         7.7039420001        1.6342862884       22.6349223597
  C         8.9411573323        5.1504671199       20.4752274595
  H         2.5689421749        6.1343932446       23.9458441688
  H         3.7286178758        7.4139479988       24.3247129174
  C         2.8264900004        6.6181281503       26.1129997136
  C         6.0022958792        0.2407706461       28.8096348455
  C         5.5412586699        2.4726653967       29.7816452229
  C         8.8056254308        2.8155802783       20.2923480042
  C         9.0739188618        4.1240838857       19.5599266363
  S         9.1455081944        6.6703966556       19.6884624403
  H         2.0711430250        7.4128124042       26.0618976478
  H         3.6052088994        6.8766987724       26.8119802259
  C         2.1949802452        5.3838515737       26.7319645028
  N         6.3862357725       -0.7849122509       27.9043697674
  C         5.9459750577       -0.3640826264       30.0793181499
  C         5.4287620813        1.8176494651       30.9957620940
  H         5.4179146806        3.5961725187       29.7340109260
  C         7.7460040194        2.0751979691       19.5204154631
  C        10.0631778568        1.9508592581       20.4923730068
  C         9.4642009680        4.5116541855       18.2642575661
  C         9.6594999862        5.8421633593       18.2430417318
  H         1.2688993507        5.0512611668       26.1804194927
  H         2.7418109140        4.5304713362       26.5491889986
  C         1.7481313123        5.5823718997       28.2031778455
  S         6.3881680280       -2.2805927499       28.5651021243
  N         6.0314563076       -1.7426630905       30.0582990300
  C         5.6352853454        0.3738517282       31.2095282561
  H         5.2026406884        2.3812542807       31.8451801711
  H         7.6586595393        1.0271517174       19.8664056572
  H         7.9906894966        1.8880706920       18.4929359024
  C         6.3666413457        2.7432194703       19.4179023384
  H        10.3425311996        1.6392740198       19.4892843462
  H         9.8651672422        1.0133181778       21.0119890606
  C        11.2366118899        2.6628746594       21.1893855261
  H         9.4559087237        3.7933617383       17.4799477248
  C        10.0814936521        6.5863650673       16.9479795108
  H         0.9879073703        4.9420062277       28.5396813737
  H         1.4136853939        6.5690136620       28.3945666145
  C         2.8064283037        5.3005038783       29.2742056913
  C         5.5400746070       -0.2729274180       32.5339790786
  H         6.4017675428        3.8554107860       19.3840480022
  H         5.7840007171        2.3805624903       20.3346059830
  C         5.5517907430        2.1502988906       18.2657999251
  H        10.8886403954        3.1281817270       22.1107803172
  H        11.6636710972        3.3507602292       20.5338080149
  C        12.4558490236        1.7782569119       21.6243018729
  C         9.9884291881        7.9668191440       16.6741237168
  C        10.3248509907        5.7655420105       15.7013830749
  H         3.2913794554        4.3977810689       28.9999771306
  H         3.5321838723        6.1292292070       29.0828510255
  C         2.1457885395        5.4006143564       30.6926304121
  H         5.9018576565       -1.3104441948       32.5305187535
  C         5.1458502333        0.1213709859       33.7788434153
  H         5.8253158799        1.0640445403       18.2449837205
  H         5.7427073818        2.8247764877       17.3664461312
  C         3.9985413601        2.3652828926       18.4780744400
  H        12.0762382350        0.9932159595       22.2943191212
  H        12.8696015751        1.3164804383       20.7102474719
  C        13.5168377320        2.6601222145       22.2604667422
  N         9.8991256432        8.9104494297       17.7121683929
  C        10.2599836436        8.4968304317       15.4116019178
  C        10.5670208477        6.2400909132       14.4691401390
  H        10.2545878552        4.6508490590       15.8317401784
  H         1.4646714927        4.6132968931       30.7783869971
  H         2.8999316672        5.0605876574       31.4477095191
  H         1.7675036135        6.3497693816       31.0491919834
  S         4.6891261596        1.6988176739       34.2748639798
  C         5.0020091016       -0.9148326111       34.8395852113
  H         3.6963299578        3.0997691450       19.1793104057
  H         3.5709999313        2.7544231456       17.5725424698
  C         3.2876046298        1.0835184125       18.8697227761
  H        13.1473141838        2.8332725628       23.2315731432
  H        13.6592369351        3.5697917698       21.7129898488
  C        14.8512629392        1.9525437855       22.4574425104
  S         9.9888806993       10.3720671242       17.0000248879
  N        10.1848009789        9.8970726127       15.4391228586
  C        10.5649938325        7.7514508635       14.2341206968
  H        10.8034912674        5.5208611153       13.7099367799
  C         4.5249898779        1.0393397318       35.8672670874
  N         4.5764910200       -0.3259424497       35.9706077497
  O         4.9969126021       -2.1169569376       34.5388586223
  H         2.3929109284        1.3400299411       19.5376252354
  H         4.0012143834        0.4912717453       19.4554817248
  C         2.8629766246        0.2015482497       17.6523245749
  H        14.9010134869        1.6678846370       23.4746262173
  H        14.9312442029        1.1403193164       21.8820267912
  C        15.9592570213        2.9616146186       22.0874554128
  C        10.9803666200        8.4218317426       13.0267927770
  S         3.9574232357        1.9882364554       37.1769179906
  C         4.4040233356       -1.1252232403       37.1713239089
  H         2.4764592694        0.8349434516       16.9187670238
  H         3.7401297584       -0.2804780550       17.3387197680
  C         1.8584219168       -0.8274504246       18.1136501608
  H        15.6876699241        3.8413991783       22.6319020054
  H        15.9538558754        3.2503024723       21.0455634554
  C        17.2771822120        2.3858147134       22.3997695525
  H        10.9613911602        9.4415776925       13.1028388225
  C        11.4403223667        7.9709818587       11.8394755183
  H         3.6147962805       -0.7641462010       37.8136366253
  H         4.0607004790       -2.0951870877       36.8005232806
  C         5.8133956803       -1.2942007162       37.7710940912
  H         0.9296813177       -0.2977076863       18.2400742964
  H         1.9826039899       -1.3566156104       19.0614663209
  C         1.7025379058       -1.8507339019       17.0449234092
  H        17.3063856546        1.4114525095       21.9965631952
  H        18.0847085165        3.0036005922       21.9993756875
  C        17.5106042570        2.3319467679       23.9009989910
  S        11.9671560820        6.3917194949       11.5510585198
  C        11.5934093064        8.9745248071       10.7747279895
  H         6.4799136357       -0.4456202930       37.7023978954
  H         5.6403943937       -1.2708773595       38.7998347267
  H         6.2794562904       -2.2391506659       37.5353245408
  H         0.7956076951       -2.5276983345       17.2273415115
  H         2.5804714261       -2.4564487990       16.9509761800
  H         1.6734775134       -1.3289460765       16.0363275646
  H        16.7222925160        2.8483245943       24.5687521605
  H        18.5141872831        2.4195935553       24.2865689429
  H        17.1854216664        1.2905291124       24.1776103623
  C        12.2971579277        6.9907690925        9.9065145494
  N        12.0071038334        8.3039857296        9.7388637015
  O        11.1850139295       10.1503843699       10.9029858199
  S        12.9824026537        6.0693294227        8.5655297959
  C        12.1447952912        9.1319137130        8.5467962993
  H        12.6629480740       10.0782639622        8.8384020130
  H        12.9193123425        8.6934413914        7.9348326466
  C        10.8222713002        9.3929648117        7.8052111900
  H        10.4786348658       10.4286490885        7.7512961806
  H        10.9520497257        9.1124728898        6.7313117510
  H        10.0420944850        8.6687763952        8.1361152543
  H         4.3711871202        3.5352234214       12.9108175330
  C         3.3759100694        3.3089768963       12.7932592739
  H         2.9075722872        4.2218191771       12.7036123171
  C         2.8679297755        2.4272038383       11.5482272563
  C         2.8496462466        2.7666091370       14.0615501405
  C         3.6485425240        2.7133678961       10.2895329898
  H         1.7707497423        2.5589548349       11.3600508963
  H         3.0341249929        1.3866598267       11.7908752014
  H         2.8320698743        1.6769350607       14.1456803180
  H         1.8514084433        3.2053327996       14.2110482777
  H         3.4012433794        3.0709193087       14.9785711551
  C         4.4542667756        1.5121843306        9.7403746203
  H         2.9360497802        2.9677524860        9.5517463817
  H         4.2152429652        3.6751819206       10.4911722191
  C         5.0392125367        1.7918642515        8.2973397960
  H         3.8350927687        0.6205294142        9.7787023774
  H         5.2862417354        1.3087044204       10.3803508721
  C         6.3303840973        2.6595820240        8.5189998042
  H         4.3217857260        2.3321452224        7.6853597610
  H         5.2833013824        0.9343391010        7.7064022630
  C         7.6178139557        1.8694902782        8.8953713325
  H         6.6119761339        3.1215049759        7.5463479188
  H         6.1626486220        3.4889975705        9.1648187610
  C         8.8781057470        2.7225725097        9.1622764569
  H         7.8373718584        1.0342528181        8.1467508544
  H         7.4641982572        1.3784914719        9.8752011849
  C         8.4782180692        3.9928217508        9.8040430172
  C         9.3193032226        3.4422938500        7.9114733145
  C        10.1054551613        2.0215743418        9.9099744875
  C         8.6934995173        5.1484656253        8.9725204976
  C         8.1197458808        4.3518847793       11.1081460112
  C         9.2842039345        4.7536681786        7.7863314168
  C         9.8336883736        2.7438211769        6.7526020262
  H         9.5810892243        1.4613986007       10.6935989542
  H        10.5038299502        1.2842989027        9.3208716758
  C        11.2538840634        2.9032649373       10.4906261214
  S         8.3693584086        6.6445626814        9.8295258168
  C         7.9143051793        5.6861816639       11.2258927354
  H         7.9743850040        3.6738395243       11.9444608230
  C         9.6829464128        5.3912522530        6.6324253741
  H         9.9658332281        1.6541054518        6.8452468154
  C        10.2105344707        3.3762815212        5.5818007919
  H        10.9230039810        3.8212538578       10.9965633133
  H        11.7103487201        3.3177554351        9.5723200685
  C        12.2741604162        2.1621466771       11.4187790967
  C         7.4655935692        6.4792213517       12.4424669386
  C        10.1829182668        4.7256997948        5.4810362599
  H         9.6850052733        6.4402986714        6.5736684393
  C        10.7020073093        2.9365457735        4.3221583918
  H        13.2321547203        2.6481810900       11.4870168690
  H        12.2447480407        1.1184225930       11.1173021417
  C        11.6887530908        2.0170067215       12.8345328440
  C         7.4789894641        7.9398107320       12.5986015321
  C         7.3827076358        5.7157195713       13.6772176509
  C        10.6571703533        5.4084681494        4.2086295283
  C        10.9263189328        4.0176297215        3.4876311671
  S        11.0526949080        1.4340666749        3.6115284232
  H        10.9058773067        2.7886462029       13.0555218002
  H        11.0678154111        1.0731755191       12.9614232053
  C        12.7573183243        2.0294308643       13.9479074291
  N         7.6865594093        8.9078130289       11.5580684324
  C         7.3464344025        8.5504147387       13.8331251007
  C         7.2080446702        6.3575707631       14.8595517314
  H         7.3036231244        4.6851737344       13.6537461923
  C        11.9830871010        6.2694098220        4.4059298166
  C         9.6279926909        6.2165310197        3.5043070485
  C        11.3547749528        3.6252627438        2.2385701819
  C        11.5182134528        2.2302240367        2.1713571083
  H        13.3432960714        2.9665808901       13.9206472995
  H        13.5716022052        1.2680332735       13.7498313000
  C        12.3173596206        1.9477446962       15.4492060768
  S         7.6974708606       10.3982372517       12.1997676454
  N         7.4835146254        9.9466204411       13.8053692250
  C         7.1797224945        7.8258451219       15.0013698488
  H         6.9344637678        5.6938167646       15.7122948306
  H        11.9147758832        7.0380048887        5.1619944343
  H        12.2338004388        6.8487859976        3.5675600264
  C        13.2498919213        5.4968594185        4.9034617991
  H         9.5289051248        7.1482631717        4.1003125424
  H        10.0317521737        6.3536427258        2.5448046122
  C         8.2786286700        5.5480885895        3.1023128536
  H        11.4021842579        4.3531368533        1.4688975604
  C        11.7414447240        1.4245114861        0.9477632245
  H        11.6550737686        2.8027468256       15.5392226240
  H        11.7663950768        0.9744783329       15.6514710609
  C        13.5232987952        2.1410279582       16.3790055594
  C         7.0249967558        8.5611278422       16.2920440021
  H        13.0342156322        5.0063370036        5.8963914656
  H        13.5383712760        4.6716426058        4.2175654240
  C        14.4304274402        6.5234909562        4.8820590154
  H         7.7827613202        5.0143981147        3.8841908387
  H         8.4957280505        4.7771987830        2.4184014590
  C         7.3368151807        6.5786745942        2.5569123430
  C        11.8422047684       -0.0111002771        0.9397830993
  C        12.0274400076        2.1338844275       -0.3058542231
  H        14.3421277702        2.6975829795       15.9804392211
  H        13.8851624629        1.1221662397       16.6239588453
  C        13.2005070126        2.7269496921       17.7560474020
  H         7.3787537404        9.6268157468       16.2842955291
  C         6.6094980955        8.2164460160       17.5509418622
  H        14.3920567692        7.3186384969        5.6370130559
  H        14.4166443273        7.0721199018        3.9577605067
  C        15.7214975802        5.7443948976        4.9833492522
  H         7.0627568840        7.0964817942        3.4525772054
  H         7.8063897520        7.2831380287        1.8379833986
  C         6.0982295508        5.9858282308        1.8947437054
  N        11.6084651596       -0.9323222222        2.0005277407
  C        12.0639256950       -0.6761177232       -0.2827874442
  C        12.3666349356        1.5048433957       -1.4751146992
  H        12.2359250341        3.2078950673       -0.1759141845
  H        13.5354320902        2.0933352632       18.5680733558
  H        12.1361747111        3.0189779855       17.9245685616
  H        13.7800450891        3.5225330741       17.8646619351
  S         6.0726930638        6.6470455354       17.9719991449
  C         6.6995973727        9.2076837767       18.6280038304
  H        15.4541970239        4.7899455297        5.3981706838
  H        16.2415951098        5.6541626986        3.9886596970
  C        16.7691609851        6.4255727763        5.9208493231
  H         5.5272154692        5.3851505669        2.5940487209
  H         6.3907275176        5.2519867857        1.1434369639
  C         5.0259745210        6.9990833692        1.3041563488
  S        11.6520151055       -2.4219061440        1.3439642020
  N        12.0108027026       -2.0405218972       -0.1655587638
  C        12.4013295804        0.0110095788       -1.5063101964
  H        12.5510966216        2.1526606177       -2.2624432196
  C         5.8555365063        7.2673096804       19.5364820223
  N         6.2047869516        8.5896376917       19.7165441269
  O         7.1196253726       10.3522968381       18.5037094773
  H        17.0957184560        7.4257023908        5.8022593498
  H        16.4422393290        6.3802204507        6.9823788150
  C        18.0168828046        5.5499370738        6.0014343206
  H         5.2729617140        7.4665153655        0.3585497112
  H         4.1384172109        6.3557785358        1.1136163011
  C         4.5746609240        8.0888036191        2.2816801107
  C        12.6149756124       -0.7487270868       -2.7149469473
  S         5.6507712460        6.1524474418       21.0177077595
  C         6.1312022665        9.2264980392       21.0708645724
  H        17.7751840769        4.4933429069        5.7264127277
  H        18.7583284589        5.9634686800        5.3413888229
  C        18.6173753717        5.7669435034        7.3301810021
  H         5.1479952835        8.9600568121        2.1040510654
  H         4.5608088040        7.7145433491        3.3286087030
  C         3.2928191314        8.6490436601        1.9508445703
  H        12.4931789685       -1.7751858411       -2.4793765366
  C        13.1024329856       -0.4312149075       -3.9534041534
  H         5.2524231759        8.7996383114       21.6559228054
  H         5.9498343128       10.2720632508       20.8458579742
  C         7.4872222822        9.0334915643       21.6878415414
  H        18.5486953483        4.9799211503        8.0753071417
  H        18.3019635548        6.6989944429        7.7856059293
  C        20.1357424985        5.9163458765        7.0148107193
  H         2.4504586819        7.9462829119        1.8498569292
  H         3.1329118015        9.3484035923        2.8081115144
  C         3.4116201717        9.5081641399        0.7145715078
  S        13.5217234453        1.1378191199       -4.4830213999
  C        13.3918070918       -1.5197187380       -4.9082767482
  H         7.7455431024        7.9790072630       21.8385781138
  H         7.4098278222        9.5996275082       22.6793021060
  H         8.3538789476        9.4649693431       21.1448857227
  H        20.5532195542        5.0922874972        6.4400885198
  H        20.4249449166        6.7407654014        6.3244877193
  H        20.7283671435        6.1508717081        7.8981788868
  H         4.1913078954       10.2331045427        0.7316644887
  H         3.5711540496        8.8689276666       -0.1743731057
  H         2.5715940230       10.0666974947        0.3700352650
  C        14.1000033312        0.3413074484       -5.9351918247
  N        13.9805813814       -1.0337739162       -5.9942509339
  O        13.0044476060       -2.6937901801       -4.7335509759
  S        14.5648161656        1.1444098686       -7.4557815721
  C        14.3973867262       -1.8112828344       -7.1853694383
  H        14.6379883855       -2.8362498315       -6.9429541560
  H        15.3752011760       -1.4259435231       -7.6157078508
  C        13.2811410598       -1.7964775026       -8.2460716556
  H        12.8982310751       -2.7924368036       -8.4865841935
  H        13.6438772152       -1.3960659830       -9.1733698617
  H        12.4759616744       -1.0590428533       -7.9697484214
