352
 i =    68800, time =    34400.000, E =        99.9617445032
  H        12.1418728270        7.3292493004       31.9177794018
  C        11.6702878360        6.3257922936       31.8766709903
  H        12.4176590432        5.5413708699       31.7604998677
  C        10.6438635741        6.2789119134       30.7080224357
  C        10.9857888759        6.0419715858       33.2491406036
  C        11.3259971006        6.2860946255       29.3142831730
  H        10.0596020633        5.4135933717       30.9287234269
  H         9.9729072459        7.1164595521       30.8865052277
  H        10.2983889490        6.8515387429       33.5583115542
  H        10.5678053695        5.0097000091       33.3414245555
  H        11.8418393128        6.1714589276       33.9513389075
  C        10.2448673631        6.2487274050       28.2821643708
  H        11.9836590301        5.3922292868       29.1618390175
  H        11.9046247685        7.1621862339       29.1479189609
  C        10.7775498808        5.8278886791       26.8414692524
  H         9.5324227548        5.5492588641       28.6938791980
  H         9.7515178614        7.2077143108       28.3571032529
  C         9.6612430225        5.4436481436       25.8989995059
  H        11.2851380907        4.9176411443       26.8210092884
  H        11.4910138280        6.5768129160       26.4993684960
  C         8.4850744006        6.2674240150       25.7847278481
  H        10.0920120552        5.1694585402       24.9083030127
  H         9.2466531482        4.5554653489       26.2980282052
  C         7.3022273430        5.4957201052       25.1775501609
  H         8.1803448216        6.6338612527       26.7190973380
  H         8.6392469663        7.1531591446       25.1728747557
  C         6.9011573689        4.1599724501       25.8741642341
  C         7.6973597920        4.7475119445       23.9556524642
  C         6.0551970425        6.4257611702       24.7904011970
  C         7.0767986231        3.0204556369       25.0855702476
  C         6.5296545472        3.7326917307       27.1348412925
  C         7.6055917754        3.4014881544       23.8344616672
  C         8.2186173386        5.3305772078       22.8186901162
  H         6.3004649350        7.1479528211       24.0156014231
  H         5.8242014676        6.9837342280       25.7339288140
  C         4.7441706136        5.5782852098       24.4648835966
  S         6.5404103765        1.5956570388       25.7826759176
  C         6.2548381626        2.3691153801       27.2377277150
  H         6.4961300074        4.4345187472       27.9002647732
  C         8.0445598212        2.7608015069       22.6637613398
  H         8.2186499113        6.4236737684       22.8435321340
  C         8.5874416838        4.6942135994       21.6368638755
  H         4.8077471261        5.3632798836       23.3698764536
  H         4.7137511209        4.6456709455       24.8892001317
  C         3.3694644537        6.2619280061       24.8251971193
  C         5.7408717822        1.7045357866       28.4603997643
  C         8.5768670106        3.3365148468       21.5501478016
  H         7.8029400673        1.7067830651       22.5453067403
  C         9.0569400022        5.0393822167       20.3823026839
  H         2.4363861513        5.9953903891       24.2967043539
  H         3.3392757749        7.2063490833       24.3974036774
  C         3.1674006179        6.2847089159       26.3455234432
  C         5.7185202840        0.2956581680       28.7791210555
  C         5.2792001514        2.5424417583       29.6175870859
  C         9.0142875957        2.6214088752       20.3160736722
  C         9.4090226379        3.8737349190       19.5901910542
  S         9.3184037260        6.5808489187       19.6290305608
  H         2.5967020306        7.1589091268       26.6413266476
  H         4.0287865853        6.3689196168       26.9677716924
  C         2.3583890302        5.0607371059       26.7658457472
  N         6.1241106004       -0.7481466653       27.8608537438
  C         5.4663274929       -0.2502137430       30.0272205185
  C         5.0552017191        1.9793003136       30.8413513045
  H         5.1659146072        3.6389076211       29.5796180428
  C         7.7385490364        1.8599769399       19.8120319422
  C        10.2525704651        1.7437904616       20.4156813200
  C         9.9530633287        4.3783326339       18.3953915850
  C         9.8820686395        5.7328546773       18.2623103200
  H         1.5902262016        4.8058458387       26.0712546862
  H         3.0186177349        4.1999114962       26.9170558254
  C         1.4882762366        5.1689685681       28.0432358985
  S         6.1105406322       -2.1894865301       28.5659497647
  N         5.7331486036       -1.6325805707       30.0739274497
  C         5.1314772553        0.4891506334       31.1776716477
  H         4.8285242882        2.6763311078       31.6593785301
  H         7.6053622561        1.0154070752       20.5240762568
  H         7.9892374115        1.3283255935       18.8697918207
  C         6.4717915256        2.7221061584       19.5409562794
  H        10.4048638697        1.0609677118       19.5896870842
  H        10.0812238739        1.1657546403       21.3066064683
  C        11.5628711686        2.5260843978       20.6088231181
  H        10.2847767171        3.6907060545       17.6466499508
  C        10.3055355557        6.5064677688       17.0706547721
  H         0.9354020402        4.2256548619       28.1525764073
  H         0.7749095664        5.9845818910       27.9894538583
  C         2.3154498707        5.3301667266       29.3280478834
  C         4.9093960514       -0.2469888974       32.3923368751
  H         6.8831971646        3.4170953938       18.8235438986
  H         6.1040270834        3.3449926945       20.4197544511
  C         5.3561744412        1.7961749758       19.0444561526
  H        11.4135060804        3.1824900378       21.5405518846
  H        11.7620140459        3.1236820575       19.7158945517
  C        12.7189097430        1.6081738655       20.7926233367
  C        10.3364005136        7.9501403750       17.0292973424
  C        10.4115478244        5.7449701533       15.8104483740
  H         3.1357063518        4.6830889842       29.3155367537
  H         2.6630158670        6.3579309503       29.1364376021
  C         1.5449172682        5.3284631171       30.6803357283
  H         5.0294799093       -1.3239597726       32.3134726963
  C         4.6078811722        0.1573201620       33.6353468388
  H         5.2305040622        1.1473918471       19.8588145051
  H         5.6783122797        1.1397125323       18.3032443119
  C         3.9689208754        2.4560148764       18.6278306469
  H        12.4872680187        0.9065991522       21.5814488113
  H        12.8160925532        0.9881314628       19.9313215339
  C        14.0513254919        2.4277027223       20.9523290354
  N        10.0711571464        8.9211228306       17.9883865813
  C        10.5972996005        8.5310396900       15.8258903757
  C        10.7143491915        6.3703411593       14.6187086934
  H        10.3369983804        4.6271756437       15.8156289571
  H         1.2580830402        6.2553235540       31.0514308940
  H         0.6006717872        4.7350006151       30.5521518229
  H         2.0066110585        4.7104934664       31.4636019574
  S         4.2591095297        1.7930947022       34.0850792432
  C         4.5418006472       -0.8046567447       34.7277433677
  H         3.6889868454        3.1917881938       19.3507696115
  H         4.0153435383        3.1292187237       17.7392323827
  C         2.8255600145        1.4029269185       18.5763149956
  H        13.9122368624        3.4176536121       20.5714166229
  H        14.8053429068        1.8911829513       20.3275782165
  C        14.4882223646        2.4089183826       22.4281191836
  S        10.1011841716       10.3757336969       17.3671169041
  N        10.5892415308        9.9047338657       15.8769566624
  C        10.8491612644        7.8375234910       14.5757132900
  H        10.9484430534        5.7041762493       13.8101415399
  C         4.2059375014        1.1599453819       35.7534900452
  N         4.2561987754       -0.1801762178       35.8653759769
  O         4.5804530824       -2.0399419629       34.4994906877
  H         2.0342383199        2.0230047509       18.2551698109
  H         2.5435615801        1.0312368785       19.5232958448
  C         3.0676600523        0.2391340348       17.5356298179
  H        13.5967743371        2.6529729958       22.9609416007
  H        14.7374937516        1.3450165842       22.6218406197
  C        15.5392324171        3.4564950258       22.7791587050
  C        11.2624652009        8.5360066663       13.4639601274
  S         3.6947517481        2.1400002971       37.1238396588
  C         4.3013162893       -0.8514375537       37.1801102493
  H         3.1297133392        0.6264009543       16.4715908350
  H         3.9458594383       -0.3253405386       17.7805183766
  C         1.8869244495       -0.7204603377       17.7595170049
  H        15.5567170866        3.6073801509       23.8257361456
  H        15.1615246677        4.3942578018       22.4714940926
  C        16.9155250926        3.2318514328       22.1860067315
  H        11.1219701980        9.5952172140       13.5822627248
  C        11.5572414870        8.1589960028       12.1557959020
  H         3.6378721540       -0.3470642691       37.9623177812
  H         3.9203511900       -1.8598039036       37.0482932774
  C         5.7627233400       -1.0021786781       37.5763029689
  H         0.9712917411       -0.1004841460       17.8545139154
  H         2.0039343887       -1.2918862222       18.6138613201
  C         1.6872546547       -1.6767601269       16.5584165787
  H        16.7444607060        2.7809209831       21.2205281690
  H        17.3212201710        4.1732144738       21.8659223301
  C        17.9992529629        2.5956692521       23.1034091584
  S        12.0465094089        6.5770251907       11.6209317787
  C        11.6730777248        9.2515386551       11.2366585656
  H         5.9586060158       -0.1230726943       38.2279753635
  H         5.9392220438       -1.8595325198       38.2376257566
  H         6.4260887258       -1.0633352810       36.6594356387
  H         1.6214590490       -1.0549589692       15.6306340733
  H         0.7347047358       -2.1780580356       16.6031543512
  H         2.4367492349       -2.4437997824       16.5435364467
  H        17.9009589010        1.4791287480       23.0186723375
  H        17.8420572792        2.9029201691       24.1497610692
  H        19.0183201104        2.9210106025       22.7656876300
  C        12.5093700990        7.4334117752       10.1305924167
  N        12.2980652210        8.8064070640       10.1255601737
  O        11.3988323328       10.4605864685       11.4677677620
  S        13.3753687904        6.5616147159        8.8417208675
  C        12.4893716349        9.6951328340        8.9115304273
  H        12.5528611562       10.6949835551        9.3362279134
  H        13.4559002976        9.5360073939        8.4032819895
  C        11.3341382802        9.6571779138        7.9468385102
  H        11.4874014722        8.8319558730        7.1764124135
  H        10.3445088527        9.5722991943        8.4181419666
  H        11.4058799381       10.6095871128        7.4601961580
  H         4.6545993426        1.2779672921       12.2029123780
  C         4.1602761867        2.1454603018       12.4229427475
  H         4.9780764429        2.8195564779       12.4920616507
  C         3.2340818811        2.4368250997       11.2233886982
  C         3.5779879574        2.1191797536       13.9497431230
  C         4.0766067114        2.6643857745       10.0065712204
  H         2.5324447577        3.2749950915       11.2597274088
  H         2.6606069557        1.5135598742       11.0933651203
  H         3.0015829285        1.3311473141       14.3100203645
  H         2.8957626991        2.9629353684       13.9000300455
  H         4.3602927940        2.3802066360       14.5510615968
  C         5.1836677135        1.6537562527        9.6414537686
  H         3.4111373417        2.5389544762        9.1692576348
  H         4.3870941432        3.6733769947        9.9532347161
  C         5.8520835751        2.0022896043        8.3379027208
  H         4.7669288641        0.6554716570        9.4643292115
  H         5.9732222397        1.5003341434       10.4085070346
  C         6.9938628830        2.9740979164        8.7184871626
  H         5.1848945012        2.5430561884        7.5897349818
  H         6.2387564632        1.2067324079        7.8149154898
  C         8.2798154396        2.1525936717        8.9994021920
  H         7.1407950367        3.6036639959        7.8891788229
  H         6.6216460118        3.6891688559        9.4509745276
  C         9.4855529343        3.0467107305        9.1256894169
  H         8.4910910484        1.4044687496        8.1721388306
  H         8.1406179065        1.5950254817        9.9227035340
  C         9.1256146822        4.3846450161        9.7860273241
  C         9.8471705207        3.8378147274        7.8544872115
  C        10.5816068542        2.4143550482        9.9309577556
  C         9.2676800710        5.5087347383        8.9925747273
  C         8.6384928934        4.7681946497       11.0097125936
  C         9.7205667549        5.1657833977        7.7372854243
  C        10.3608003409        3.2337433750        6.6829659137
  H        10.1345263201        2.3487191703       10.9403749909
  H        10.6618670705        1.3256855832        9.7125244856
  C        11.7779395452        3.1721209460        9.8725259235
  S         8.8631974943        7.0185983932        9.6902378620
  C         8.4166778054        6.1517653950       11.1146960204
  H         8.3818190947        4.0733165838       11.7835550175
  C        10.0633158480        5.8715809264        6.6317481292
  H        10.4917204902        2.1276856488        6.5881498063
  C        10.7038589585        3.8812374278        5.5267031306
  H        11.6217790969        4.1699110303       10.0503549379
  H        12.2011983717        3.2316120867        8.9158784955
  C        12.8454129277        2.6533383385       10.8138423011
  C         7.9274520123        6.8026916947       12.3694069686
  C        10.5174474647        5.2251257333        5.4540563123
  H         9.9388631500        6.9666727974        6.5442340325
  C        11.1240091454        3.5462922097        4.2519073954
  H        13.7610887051        3.1940236145       10.7588879058
  H        13.2093909758        1.6958154490       10.4200192189
  C        12.3991953901        2.4486440079       12.3590365371
  C         7.8708667935        8.2279619492       12.5644130519
  C         7.4356356887        5.9648019409       13.5021442391
  C        10.9761401343        5.9603326627        4.2262219655
  C        11.2372508418        4.6474708043        3.4326649376
  S        11.5057260589        2.0662874275        3.5039354898
  H        11.5593692021        3.0951567677       12.5216112686
  H        12.0314551881        1.4119873277       12.5315691209
  C        13.3680002150        3.0012537092       13.4380101666
  N         8.1776129451        9.1829869333       11.6035137866
  C         7.5026805236        8.8025349071       13.7770286593
  C         6.9630740981        6.5215982024       14.6860715077
  H         7.2560224084        4.9297132728       13.3374670762
  C        12.2510700380        6.7824186649        4.3925107729
  C         9.7877672254        6.7252045673        3.5106909300
  C        11.3681939859        4.2771456789        2.0991933950
  C        11.5688758036        2.9069751564        1.9429132324
  H        12.9474175062        3.9719233547       13.7630345964
  H        14.3157623004        3.3009859700       12.9956252983
  C        13.5463982059        2.0450564871       14.6632478299
  S         7.9961017092       10.6062117343       12.3167569650
  N         7.4599398247       10.1484488417       13.7815968095
  C         7.0752568061        8.0278938676       14.8842523018
  H         6.7455802522        5.7855136833       15.4328791661
  H        11.9746472574        7.6786921257        4.9795875023
  H        12.7543894826        7.0575179677        3.4764899100
  C        13.2782412363        5.9906677412        5.1234606290
  H         9.5745174237        7.6698594597        3.9725897710
  H        10.0722821546        7.0138923538        2.5344566691
  C         8.4985007570        5.8931842264        3.4027731718
  H        11.4858795602        4.9256941299        1.2645702744
  C        11.9604419111        2.1758604846        0.5881692801
  H        13.7272662858        1.0768687062       14.1739072292
  H        14.3795640485        2.3266840828       15.2890518647
  C        12.1965047103        1.8103848638       15.4243854943
  C         6.9253093511        8.6680634130       16.1458803355
  H        12.9693644431        5.7855500736        6.2404436499
  H        13.4024554811        5.0090613180        4.6555787453
  C        14.6827750573        6.5565275833        5.2921727026
  H         7.9633937046        6.0581265202        4.3259391584
  H         8.7776815381        4.8753567999        3.3567457833
  C         7.7013805355        6.2267472135        2.1661276575
  C        12.0753870588        0.7952263849        0.4233166451
  C        11.9837474440        2.9317791246       -0.6802402408
  H        11.8394022833        0.8285466294       15.1329669491
  H        11.5247723500        2.5014715798       15.0500894423
  C        12.3956256839        1.9522785160       16.9919283212
  H         6.9371529386        9.7476685904       16.0305496493
  C         6.6507825566        8.2510070666       17.4431055735
  H        14.4987626517        7.4840475554        5.8489600551
  H        15.1153643002        6.8432056284        4.3356259606
  C        15.6147333022        5.7268043751        6.1986566307
  H         7.6840845906        7.2672603628        2.1073552345
  H         8.1937734633        5.8103775745        1.3359057168
  C         6.2193348623        5.7395707775        2.2290205167
  N        11.8815914283       -0.1065671599        1.4819485352
  C        12.3272508821        0.1114327706       -0.7324245154
  C        12.3712935750        2.3221150403       -1.8761007680
  H        11.8829127902        4.0306424807       -0.6866928189
  H        13.2185651202        1.4131538732       17.5200720545
  H        11.4726747014        1.7260236216       17.5394636441
  H        12.6127874891        2.9934063509       17.1935876237
  S         6.3939034810        6.6140985939       17.9000847750
  C         6.5197537079        9.2516849346       18.5003013772
  H        15.1922822632        5.6509847767        7.1987330571
  H        15.7265327747        4.6796536819        5.9288892869
  C        16.9988561976        6.4082767056        6.4097202253
  H         5.9347457974        5.7118686126        3.2408074002
  H         6.1918829334        4.7575328534        1.8527574309
  C         5.2233254540        6.5064443594        1.4063795746
  S        11.9934361048       -1.6328948360        0.8909982567
  N        12.3210728711       -1.2605807610       -0.6476910026
  C        12.5427561019        0.8231867650       -1.9324459524
  H        12.5480340473        3.0120270720       -2.7719911577
  C         6.0440132951        7.2994632639       19.4602439260
  N         6.0808785198        8.6139500558       19.6198659866
  O         6.5783361836       10.4819614454       18.3602239354
  H        17.3555314800        7.1015490968        5.6201864572
  H        16.9669283473        7.1730003719        7.1345209898
  C        18.0015173874        5.4236734011        6.9708316175
  H         5.4956025541        6.6097094243        0.3399694328
  H         4.3509012112        5.9348225132        1.3226282986
  C         4.9753279556        7.9477553517        1.9145907318
  C        12.9045683161        0.0036077098       -3.0128708401
  S         5.4988207995        6.2842760567       20.8497036892
  C         6.0502311766        9.4024165965       20.8793518012
  H        17.9240902478        5.3156023922        8.0209322508
  H        17.6332429890        4.4819177562        6.4757013483
  C        19.4294207333        5.7169401518        6.6040698592
  H         5.6439106710        8.3025660280        2.7034778264
  H         4.0211732421        7.8266758205        2.3778218264
  C         4.8425789709        8.9746570810        0.8293545666
  H        12.4780126733       -0.9686602898       -3.0264834171
  C        13.4077476496        0.2374412411       -4.2660561793
  H         5.3215680396        9.0035598299       21.5959875465
  H         5.7190875010       10.3737875539       20.7146759588
  C         7.3897799872        9.4040460360       21.5656868206
  H        20.0775322462        5.3527510778        7.4188358155
  H        19.7014782797        6.7834840921        6.5362463448
  C        19.7909011138        5.1133820543        5.2600858731
  H         5.8903190688        9.3108422764        0.5389217447
  H         4.3159652481        8.5693775091       -0.0714882852
  C         4.0906756526       10.2561036374        1.2378557289
  S        13.9264736662        1.7899257037       -4.7396583444
  C        13.4152788121       -0.8156081120       -5.2572384884
  H         7.7197421672        8.3994237404       21.8092526459
  H         7.3337844093        9.9963286395       22.4885227983
  H         8.0783423109        9.7990960892       20.7986221401
  H        19.1702138605        4.1989750548        5.1763082668
  H        19.3686517574        5.7958559423        4.5276196634
  H        20.9304775243        4.9463367096        5.1799024388
  H         3.7835077114       10.3050857706        2.2699448296
  H         4.5803390924       11.1991390558        1.0255294597
  H         3.2001906444       10.2748755240        0.6879274964
  C        14.1298201446        1.1231007533       -6.3466707856
  N        13.9634733199       -0.2551680870       -6.3695935260
  O        13.1910012950       -1.9801205208       -5.0481369547
  S        14.7583374103        1.8669987961       -7.6740864800
  C        14.1769303952       -1.0856191761       -7.5557586156
  H        14.5789469416       -2.0388058357       -7.3309309773
  H        14.9400447799       -0.6699880670       -8.2907703469
  C        12.9468847383       -1.2268867853       -8.2726337900
  H        13.0100465290       -0.8012670154       -9.2267120805
  H        12.0726584101       -0.6952256378       -7.7959818636
  H        12.6386221928       -2.2795560245       -8.4605528812
