352
 i =    37600, time =    18800.000, E =        97.8242093346
  H        10.6381223127        4.5311647507       31.9924293255
  C        10.7813503391        5.4909174103       32.5228248484
  H         9.7630558110        5.8433716916       32.6736955582
  C        11.6195153707        6.2559979525       31.5185490551
  C        11.3970511978        5.3340385091       33.9669391659
  C        11.6783528892        5.7160571340       30.0619370976
  H        11.3486425806        7.3254657079       31.4281834314
  H        12.6993950266        6.3675665147       31.9168878806
  H        11.2143813278        4.3430824937       34.3462389248
  H        12.3941043080        5.6877765706       34.1582386411
  H        10.9804702167        6.0626935391       34.6736379017
  C        10.3256870944        5.4967175576       29.2341597878
  H        12.2014077576        4.8392807508       30.1790068206
  H        12.3077394223        6.3825896898       29.4635845055
  C        10.6129114420        5.6081873369       27.7152579031
  H         9.8133192699        4.5521931489       29.4989371588
  H         9.6672677892        6.2884471987       29.5662165799
  C         9.5296455278        4.8743466621       26.8994398617
  H        11.5814882608        5.2813515909       27.4440827970
  H        10.4705351389        6.6241532537       27.5025101658
  C         8.4528381674        5.7070999529       26.4284025364
  H        10.0161195271        4.4219173137       26.1123858376
  H         9.1403705958        3.9459333345       27.4223677613
  C         7.2520278476        5.0269069324       25.7132667828
  H         8.1243778891        6.1814675682       27.3146362888
  H         8.8126215529        6.4748903421       25.7998135688
  C         6.8083612142        3.7321650593       26.3497020443
  C         7.6759055258        4.2902341252       24.4460367891
  C         6.0208507739        5.8742345260       25.5368345523
  C         7.0398925270        2.6343291341       25.6084589818
  C         6.3060711887        3.4022643312       27.6259038160
  C         7.6286529289        2.9245120869       24.4043191393
  C         8.1742862634        4.9098790698       23.2748846932
  H         6.3911060979        6.6233868256       24.8494187025
  H         5.7100479001        6.3992073667       26.3581378917
  C         4.8116671029        5.0311479580       25.0414396723
  S         6.5556022302        1.1409805099       26.2773846978
  C         6.0736072425        2.0204570657       27.6905106290
  H         6.0851510733        4.1660338315       28.3816789378
  C         8.1051663694        2.2547543773       23.3415523689
  H         8.2546509915        5.9650762018       23.3056393846
  C         8.5200485170        4.2468800005       22.1478753511
  H         5.2270129141        4.4933616004       24.1280466423
  H         4.4069357947        4.2357527399       25.6875062642
  C         3.6429915416        5.8567616829       24.5461809912
  C         5.6658371382        1.2815945225       28.9181712327
  C         8.5580096390        2.9115707962       22.1500438675
  H         8.0541955088        1.1739811384       23.2940454668
  C         8.9289410478        4.6063892312       20.9207244526
  H         3.0634247481        5.2447993135       23.9243376243
  H         3.9737581573        6.6415608691       23.9242486811
  C         2.6817325322        6.3757648142       25.6406136076
  C         5.6955122089       -0.1150403540       29.1540307958
  C         5.3199933283        2.1040206127       30.1290172517
  C         8.9292714137        2.2456786804       20.9545141504
  C         9.1115609456        3.5273607500       20.1296070640
  S         9.2132668563        6.1325031129       20.1727049421
  H         2.1452899758        7.2191542432       25.1786283413
  H         3.1293685667        6.9008622042       26.4531691367
  C         1.6953151390        5.3359669461       26.1902972285
  N         5.9853920477       -1.0583344686       28.1951324126
  C         5.4328480155       -0.6764096141       30.3438799974
  C         5.0536167373        1.4809580754       31.3496684028
  H         5.1863571806        3.1906175686       30.0046366993
  C         7.7499204668        1.3571754168       20.4591909706
  C        10.2473780043        1.4373031915       21.1493703811
  C         9.4854112084        3.9272097112       18.8374832008
  C         9.5256098056        5.2861355951       18.7030208156
  H         0.8682188553        5.2155910236       25.5357866217
  H         2.2449433567        4.3962972483       26.2504776211
  C         1.2039220652        5.7686913179       27.5314255469
  S         5.8117651065       -2.5185120712       28.8117695346
  N         5.4887819477       -2.0284061394       30.3602217258
  C         5.1802042047        0.0439281120       31.5201103167
  H         4.6959630564        2.0483447674       32.2175642087
  H         7.4130108557        0.6567859886       21.2114164089
  H         8.0907702406        0.7488014488       19.6495613229
  C         6.5582594226        2.1255131668       19.9184463481
  H        10.3159717073        0.8991683762       20.1454091579
  H        10.1485154948        0.7575480691       22.0063751818
  C        11.5258781948        2.3080684065       21.4297007065
  H         9.5432018513        3.2262623499       18.1224622506
  C         9.7610888539        5.9669843528       17.4086619099
  H         0.1718107697        5.4028938746       27.5021164448
  H         1.1362425459        6.7825226913       27.7498079036
  C         2.0798203824        5.1423229006       28.5879223482
  C         4.9855027291       -0.7549830405       32.6887197850
  H         6.9332795450        2.7714765123       19.1158588329
  H         6.0590506008        2.7636159015       20.7007866294
  C         5.5067024445        1.1827789191       19.2682269859
  H        11.4332247579        2.8513437927       22.4053537659
  H        11.6511963070        3.1231182274       20.7538319900
  C        12.7515325720        1.4697589215       21.5256457487
  C         9.8599027428        7.3309950630       17.2796609076
  C        10.0193572246        5.2103397620       16.1333117363
  H         1.9864270877        4.0789810921       28.5158661560
  H         3.2138974558        5.3860537140       28.4295268615
  C         1.6986586677        5.4636608150       30.0447254062
  H         5.4758937163       -1.7259292345       32.6755762283
  C         4.6555067751       -0.4337435983       33.9578559827
  H         4.9678344747        0.5166821572       19.9666066922
  H         6.0653208153        0.5426917045       18.6776515669
  C         4.6085238903        1.9946125943       18.2574830458
  H        12.5005827409        0.6966650977       22.2502551507
  H        12.9920161273        0.9675650820       20.5570098055
  C        14.0180468321        2.3346619149       21.8104213805
  N         9.6809234932        8.2704569800       18.3232303172
  C        10.3229382444        7.9472836978       16.1175245947
  C        10.4637118936        5.8476745983       14.9854595708
  H         9.9695650227        4.1532021215       16.1558118845
  H         0.9253549934        6.2576525085       29.9866290133
  H         1.3594073561        4.6881130264       30.6714702511
  H         2.5644149515        5.9177432046       30.4735216141
  S         4.0334540912        1.0740335044       34.4519234885
  C         4.5448377570       -1.4744489543       35.0175315409
  H         4.2810586462        2.9004789953       18.7486452228
  H         5.2573296080        2.1956677171       17.3420363864
  C         3.4100940399        1.1615068384       17.8355610002
  H        13.6958209598        3.2513409547       22.2855332534
  H        14.5394639528        2.6105994119       20.8804857427
  C        14.9004847013        1.6201466093       22.8076830554
  S         9.6567384918        9.7369692409       17.6748934367
  N        10.2673733647        9.3573440374       16.2450586212
  C        10.6516801447        7.2962179566       14.8845044928
  H        10.5714329215        5.2478731324       14.0809126816
  C         3.7071057955        0.2675921556       35.9912563234
  N         4.0428974578       -1.0219297050       36.1410552386
  O         4.7852082446       -2.6923180038       34.7762750943
  H         2.7186914662        1.8541909926       17.3298530487
  H         2.8089955725        0.8171784951       18.7237968373
  C         3.5893195553       -0.0651651280       16.9361312717
  H        14.3439204624        1.0371693042       23.5490613244
  H        15.3541570931        0.8091998803       22.2410967145
  C        15.9284771339        2.5158865058       23.4167887808
  C        11.0298666270        8.1296992639       13.7760122924
  S         3.2842348989        1.1393970215       37.4641246251
  C         4.0064567453       -1.8019201965       37.3366885617
  H         2.7994802520       -0.0680027953       16.2028346189
  H         4.4313789050        0.0982924076       16.2338484769
  C         3.6945862362       -1.3507292191       17.7476698580
  H        15.5660714482        2.9203756567       24.3812620914
  H        16.1823574191        3.2680530974       22.6888501476
  C        17.3105698140        1.8426731216       23.6488466530
  H        11.1711617124        9.2014132512       13.9576932175
  C        11.4135533729        7.6967721607       12.5106026721
  H         3.1084121460       -1.4701966480       37.9609324896
  H         3.6487444199       -2.7889608147       37.0406254484
  C         5.3516358720       -1.9897025844       38.0406744409
  H         2.8035669647       -1.3588981437       18.3203558939
  H         4.5138549183       -1.2773789447       18.4403633247
  C         3.7647187121       -2.6244993570       16.8772705145
  H        17.9025199497        2.5272479593       24.1845916703
  H        17.2243354660        0.9138776541       24.2821873900
  C        18.1067050843        1.5686027629       22.3490013109
  S        11.6500831723        6.0922312877       11.9608889898
  C        11.6278940960        8.7979891429       11.5276853388
  H         6.1675303481       -2.1091842561       37.3456044239
  H         5.5837221337       -1.0313090584       38.5233883000
  H         5.4494411392       -2.8049452801       38.8029597954
  H         3.0698773875       -2.5599940818       16.0976051117
  H         3.6842041346       -3.4982436512       17.6217278174
  H         4.7735819939       -2.7593127218       16.4853256461
  H        19.1823027664        1.4722407641       22.5421806827
  H        18.0006002085        2.5374490621       21.6777689682
  H        17.7600123571        0.7952535091       21.6955026507
  C        11.9513626709        6.8628170866       10.3548375238
  N        12.0955939729        8.1998319141       10.3893793136
  O        11.3582148866       10.0074076065       11.6791972643
  S        12.3889495325        6.0071902831        8.8462298463
  C        12.1679184455        9.0030094849        9.1440901989
  H        12.3240550757       10.0718329264        9.4952962051
  H        12.9967487752        8.7795545343        8.5468258770
  C        10.8225214209        8.9614258577        8.4113446764
  H        10.7429477593        9.7687061842        7.7289584797
  H        10.7990527058        8.0544561323        7.7978933636
  H         9.9433714096        8.9830971752        9.0406205457
  H         3.2538511085        0.6116021957       13.9551314268
  C         3.8858007548        1.3836320948       13.3732849939
  H         4.7795302549        0.8070366535       13.1568256016
  C         3.3393834184        1.9110142115       12.0553210187
  C         4.2037398324        2.4629243197       14.3485040529
  C         4.4042144414        2.3598373924       11.0195998611
  H         2.6070926341        2.7655024242       12.2227689573
  H         2.6490870381        1.2410825400       11.5439123899
  H         4.6285486889        1.9478332646       15.1952792327
  H         3.3926227584        3.0561076208       14.6801921261
  H         4.9377588823        3.2218565587       13.9292787756
  C         5.0510145338        1.1650350287       10.3978573331
  H         3.7916345497        2.7550998298       10.2864412018
  H         5.1466574371        3.1140139655       11.3742623310
  C         5.4596202880        1.4445039752        8.9254731490
  H         4.2720103641        0.4720288020       10.4375226218
  H         5.7574685510        0.6484368864       11.0143252094
  C         6.7924082416        2.3054101280        8.7845009146
  H         4.7253557846        2.0059945718        8.4279738301
  H         5.4966564061        0.4819346728        8.3712487718
  C         8.0191014027        1.5778146897        9.2473078932
  H         6.8925429281        2.6188720768        7.7628152811
  H         6.5054291338        3.2120968024        9.3519169524
  C         9.3362282721        2.4873228356        9.2065698521
  H         8.3343592179        0.7597216993        8.6764734395
  H         7.9240484631        1.1515061205       10.2203440616
  C         8.9515921520        3.7014842794        9.8791309508
  C         9.6106902596        3.2303478997        7.9481606284
  C        10.6212696648        1.7750193618        9.6801063217
  C         9.0448190393        4.8375412481        9.1187030848
  C         8.4592021475        4.0214810051       11.1856701716
  C         9.4628375993        4.5577216659        7.8217497236
  C        10.1685581886        2.6086376894        6.8292780054
  H        10.4170149474        1.2368925371       10.6117469056
  H        10.8825053717        1.0564626138        8.9339478862
  C        11.8673815841        2.7034697943       10.0068347574
  S         8.5521777634        6.2720945711        9.9197101948
  C         8.2067323783        5.3722131501       11.3319824682
  H         8.3073694446        3.2302791992       11.9086700424
  C         9.6743995178        5.3003280668        6.7024792942
  H        10.3115165177        1.5374184636        6.9026736690
  C        10.3527749518        3.3378153557        5.6822268323
  H        11.5803533546        3.6117184894       10.4572314444
  H        12.3531061701        3.0289780362        9.0687857615
  C        12.8618730040        2.1280216049       11.0275968827
  C         7.6018067697        6.0242134204       12.5727840476
  C        10.1361400871        4.6647788146        5.5719167120
  H         9.5450126155        6.3984785698        6.6734758656
  C        10.7474280346        2.9720707408        4.4570860855
  H        13.9024649301        2.4671850279       10.8022714205
  H        12.8745813921        1.0909552915       10.7688621816
  C        12.4437457925        2.3211491081       12.4994945338
  C         7.7960882310        7.3846984324       12.9338406635
  C         7.1324295131        5.1122451683       13.6369266004
  C        10.4888595916        5.3607820850        4.3284104526
  C        10.9095905795        4.0559641108        3.5799469916
  S        10.9953330293        1.5028408651        3.6340147171
  H        12.0705055258        3.3164696760       12.6580177703
  H        11.5480816996        1.5996397552       12.5876954206
  C        13.6428095935        2.1126329400       13.4895977755
  N         8.1633128060        8.4610325317       12.0869730309
  C         7.4523331797        7.8619490130       14.1385657983
  C         6.7549383774        5.6104008511       14.9023196135
  H         6.9520122137        4.0670057025       13.4682701940
  C        11.7335936939        6.2401569002        4.4259908412
  C         9.2343795686        6.0533043718        3.6792219764
  C        11.1492518401        3.6904858042        2.2167620770
  C        11.3699739672        2.3601337644        2.1605643513
  H        14.0364835613        3.0501562439       13.7287856946
  H        14.5327982545        1.5576817791       13.0889919899
  C        13.2301989634        1.3352101672       14.7923999875
  S         8.0658801685        9.9095963544       12.8164463140
  N         7.5655042869        9.3141201980       14.2406803957
  C         7.0071894497        7.0407791814       15.2120212761
  H         6.3792417410        5.0120391243       15.7004791533
  H        11.4576538484        7.1256517046        4.9714621094
  H        12.0985532673        6.6253502470        3.5045751171
  C        12.8543732314        5.5098685077        5.1740527484
  H         9.0795020002        7.0362055720        4.1080107542
  H         9.5936445983        6.2692676505        2.6079439497
  C         7.8868053941        5.3607978633        3.7636158515
  H        11.2040149569        4.4133827042        1.4474054649
  C        11.8270126854        1.5857410285        0.9248449878
  H        12.4952147778        0.6021262361       14.5887618854
  H        14.1463509364        0.8273771841       15.1033139757
  C        12.8863818662        2.3715443196       15.8476999332
  C         6.7549294005        7.6482054774       16.4857194083
  H        12.5959742781        5.1649926473        6.1982725379
  H        13.1685224618        4.6170141988        4.6410006503
  C        14.0110862056        6.4419687461        5.3818274967
  H         7.5534619163        5.5045653455        4.8122313688
  H         8.0921523391        4.2925335918        3.5674206920
  C         6.9731585290        5.8581993531        2.5828978380
  C        11.9447706342        0.1775004254        0.7391281505
  C        11.9437692770        2.3382245067       -0.3821895399
  H        12.1297599749        3.1031973919       15.5608891978
  H        13.8051991412        3.0296562370       15.9576005312
  C        12.4787847788        1.7391124516       17.2186873117
  H         6.8862786114        8.7489608356       16.5067342444
  C         6.4734031389        7.2612162679       17.8180393335
  H        13.7902674180        7.2236847971        6.0749728136
  H        14.3311595386        6.7915659941        4.4403182624
  C        15.1495664051        5.8052472863        6.1346460922
  H         7.2994476395        6.8857908852        2.2904863299
  H         7.1397963377        5.2405937841        1.7627991961
  C         5.4919371048        5.7765241038        2.8709594083
  N        11.6791135018       -0.7134982048        1.6894355351
  C        12.1870056171       -0.4353399135       -0.4739589515
  C        12.2589444207        1.7115049280       -1.6123255087
  H        11.9841884193        3.3395680989       -0.3541673599
  H        11.7753829939        2.2438909471       17.8980954319
  H        13.3633784008        1.4892059582       17.8438370571
  H        11.9402968351        0.8133520283       17.1121747562
  S         6.2207523595        5.6287637888       18.4188001537
  C         6.3453017064        8.3333740592       18.8474244825
  H        15.4133666749        6.3078353118        7.0644973719
  H        14.9636921971        4.7615139714        6.4034112064
  C        16.3807193785        5.8945669885        5.2595573260
  H         5.3026159208        6.3310993550        3.7542376094
  H         5.1470840967        4.7888084916        3.0770749257
  C         4.7816636453        6.4843062681        1.7387493145
  S        11.8607210815       -2.2809852842        1.2051332293
  N        12.2648582388       -1.8299800541       -0.3274998857
  C        12.4353753037        0.2584944857       -1.6631813854
  H        12.4176048255        2.3989331637       -2.4207978603
  C         5.9749146606        6.3956054001       20.0153390726
  N         6.0928478396        7.7850029840       20.0819436116
  O         6.2883383442        9.5030503373       18.5555807976
  H        16.2926586446        5.2535493600        4.4401047520
  H        16.3221206166        6.9388322178        4.8766834815
  C        17.6074218251        5.6449222920        6.0906052204
  H         5.2639660729        6.2875362104        0.7566477328
  H         3.7805607169        6.0663973304        1.6660061344
  C         4.4916364519        7.9496949536        1.9691891636
  C        12.7412969705       -0.4175376367       -2.8963178017
  S         5.4355931241        5.5857915194       21.4651759272
  C         6.0491938927        8.5725260609       21.2749622374
  H        17.6756086687        6.1359096214        7.0736407634
  H        17.5662413027        4.6040125121        6.3868346670
  C        18.9232442648        5.8782408127        5.3399304512
  H         5.0424358678        8.3574711610        2.7845781944
  H         3.4511147897        8.0494719458        2.4041155779
  C         4.7178116737        8.7782186060        0.6988116815
  H        12.5828149442       -1.4523977890       -2.8038538714
  C        13.2831593197        0.0197703619       -4.0724721156
  H         5.3728835962        8.2229015419       22.0384422426
  H         5.6795317627        9.5099074398       20.9924299783
  C         7.4308448547        8.5902529745       21.9023637875
  H        18.8807825193        6.9333058991        4.9754789410
  H        18.9715264284        5.2259719530        4.4708790571
  C        20.2066066819        5.9219207594        6.2750154651
  H         5.1232643910        9.7444830225        0.9574968841
  H         5.4106428773        8.3507130211        0.0038736316
  C         3.4304060898        9.0749347368       -0.0516531120
  S        13.8478634195        1.6108479270       -4.5021074883
  C        13.3621330089       -1.0116218863       -5.1386049130
  H         7.5368922246        7.8425557084       22.7221906157
  H         7.5737820796        9.5700925347       22.2927591274
  H         8.1628815793        8.4768466503       21.1012801528
  H        20.8195464958        5.0122584185        6.1385521269
  H        20.6543462119        6.8422506719        6.1274651251
  H        19.9759939594        5.9324670413        7.3197389158
  H         2.8373470529        8.1375431381       -0.1112514092
  H         2.8103144166        9.8029834522        0.5022656807
  H         3.5767383138        9.5152191136       -1.1115914467
  C        14.2892584469        0.9008977669       -6.0230261274
  N        14.0270963268       -0.4144987382       -6.1655722607
  O        12.9425691298       -2.1510442156       -5.2113916948
  S        14.9351795977        1.9088879123       -7.4373250205
  C        14.2349540235       -1.0566087531       -7.4661311882
  H        14.3723108728       -2.1362235537       -7.4772124326
  H        15.1875473387       -0.6846291564       -7.9037395951
  C        12.9925724632       -0.9135537571       -8.4160374329
  H        13.2124485207       -0.0810774103       -9.0628564721
  H        12.0898882869       -0.6719690407       -7.8442405096
  H        12.8400080617       -1.8216070870       -9.0547669355
