352
 i =    86000, time =    43000.000, E =        98.5563231606
  H        12.0024271327        6.6352460827       32.2752507655
  C        11.5866359991        5.6800641642       32.4315140826
  H        12.4128854209        4.9682609799       32.2264696392
  C        10.5002419606        5.3373802594       31.4557570938
  C        11.1025923766        5.4415036352       33.8693420124
  C        10.8757391364        5.7851635003       30.0667834575
  H        10.2559785856        4.3435413932       31.6759590996
  H         9.5962281733        5.8122119151       31.7240875126
  H        10.9247454564        6.4068432619       34.4548538973
  H        10.1807345187        4.9094000041       34.0616820992
  H        11.8827592255        4.9728158632       34.4107924000
  C        10.0870230455        4.9978713305       29.0411754768
  H        11.9721452067        5.5475824384       30.0163982402
  H        10.8323742481        6.8651657953       30.0744353571
  C        10.5870623628        5.2770105358       27.6464599338
  H        10.3307199484        4.0283392274       29.3378296864
  H         9.0347566074        4.9715878370       29.1571540212
  C         9.6348710321        4.7625647413       26.6002570334
  H        11.4735123848        4.5771305462       27.5284557236
  H        10.8599452285        6.3107540158       27.5151557915
  C         8.5638556374        5.7667013822       26.3614989231
  H        10.2113285921        4.6517083045       25.7228021924
  H         9.3543597964        3.7469001749       26.8969106538
  C         7.3020279676        5.0871475083       25.7132689833
  H         8.2286616557        6.3309223161       27.1718372247
  H         9.0292265103        6.5332486978       25.7038183309
  C         6.9035346700        3.7877102722       26.4501817347
  C         7.6472441163        4.3190793168       24.4632937866
  C         6.1526567990        6.1623257087       25.5423329983
  C         7.1269241516        2.6852342294       25.6489760820
  C         6.3793408703        3.4673921990       27.7237301770
  C         7.6178144933        2.9771095333       24.3759686748
  C         8.0480807085        4.9489838878       23.3000706795
  H         6.4178420420        6.9692430991       24.8707331110
  H         6.0214866076        6.5928052376       26.6029124754
  C         4.8593223310        5.5616277274       25.0056331059
  S         6.6446077356        1.2005734144       26.3614532488
  C         6.3240191532        2.0878423791       27.8338893017
  H         6.1332831614        4.2736431449       28.4071873376
  C         7.9196303351        2.3612885378       23.1905339101
  H         7.9693589800        6.0003976951       23.1064375824
  C         8.4367386946        4.3272106157       22.1682949863
  H         5.0822355450        5.0306316640       24.0263062433
  H         4.4908080977        4.7119586505       25.5763529538
  C         3.7397841142        6.6421937856       24.7531088339
  C         5.8473643457        1.3431041314       29.0928370239
  C         8.4371000208        2.9665024670       22.0405638348
  H         7.8965025502        1.2754286987       23.0847464922
  C         8.8090025567        4.7074049845       20.8980123650
  H         3.1801473154        6.2905601893       23.8971527645
  H         4.2698850391        7.5441988586       24.4585312726
  C         2.8528978193        6.9663840539       25.9385110355
  C         5.9892776030       -0.1353971584       29.3782358697
  C         5.2562996631        2.0984032765       30.1466099845
  C         8.9152659631        2.2924694368       20.8163460322
  C         9.0449107362        3.6280810899       20.1086892144
  S         9.0665913590        6.2486507474       20.1866644594
  H         2.3515622706        7.8563102418       25.7299414461
  H         3.5089982293        7.1526389349       26.8186853297
  C         1.9643448691        5.7830701209       26.3651009966
  N         6.4082263179       -1.1044079387       28.4393447838
  C         5.7575800844       -0.6409994965       30.6270394811
  C         4.9630437470        1.5141934372       31.3898264268
  H         4.9710840589        3.1198992916       30.0387265356
  C         7.7473883473        1.4335986550       20.3345258487
  C        10.1472568301        1.5302792668       21.0789561967
  C         9.4782205344        4.0642746413       18.8162881216
  C         9.3954535916        5.4236922358       18.7070179207
  H         1.1964078018        5.6455982604       25.6282390085
  H         2.5236451299        4.8228047840       26.4016589345
  C         1.4635596196        5.7972644021       27.7757650688
  S         6.4198187774       -2.5549353823       29.0943626352
  N         5.9317735594       -2.0788261647       30.5880393402
  C         5.2716424668        0.0893524076       31.7292436549
  H         4.4709525864        2.1050103519       32.1302605044
  H         7.5776321615        0.5652930373       20.9405372232
  H         7.9878374295        0.9215389040       19.4055587875
  C         6.3404450879        2.1111371980       20.0759368573
  H        10.4038813855        0.9006913611       20.1758068365
  H         9.9855920845        0.7632692382       21.8774461534
  C        11.3570785098        2.4151109233       21.4657797990
  H         9.8965328052        3.2866542378       18.1254408469
  C         9.6906728595        6.1913055243       17.4680493781
  H         0.5287891409        5.2356382717       27.7739328537
  H         1.2779870382        6.8186826758       28.0984713280
  C         2.4309811786        5.3273947249       28.8362613388
  C         5.0927194343       -0.5700457922       32.9825137296
  H         6.1420442541        2.9330824238       20.7599442647
  H         5.5598327844        1.4057396418       20.3688778561
  C         6.1245161034        2.7016225497       18.7133609025
  H        11.1396228259        2.9608557072       22.4021473040
  H        11.5340434605        3.1748783541       20.6830599542
  C        12.5736018073        1.5427090190       21.7975171009
  C         9.7711691655        7.6293920972       17.3596475403
  C        10.0373069399        5.4644764089       16.2733164049
  H         2.5401084262        4.2494615286       28.9134845732
  H         3.3710977884        5.8012682491       28.7763769662
  C         1.9323334921        5.6271488905       30.2568328370
  H         5.3187618825       -1.6359794551       33.0902572943
  C         4.7455280394       -0.0867162417       34.1501305794
  H         6.6960185872        2.2635201050       17.8521297061
  H         6.5605188940        3.7210320314       18.6691408445
  C         4.6470579003        2.7185988172       18.3558547705
  H        12.5335511490        1.2717137585       22.7853463380
  H        12.4453533232        0.6834120314       21.1028917752
  C        13.9256328712        2.2724063144       21.3667784920
  N         9.6743461442        8.5613174978       18.4224225748
  C        10.0814986010        8.2845246936       16.1875938423
  C        10.4622761320        6.1119431207       15.1095746287
  H         9.8761691036        4.3466662222       16.1861861368
  H         1.1062545910        4.9592917239       30.3797552756
  H         2.7409058946        5.6401865185       31.0396136756
  H         1.5428091352        6.6047081892       30.3388916497
  S         4.5444945140        1.6149628073       34.5642347733
  C         4.6427612015       -1.0139006371       35.2595553345
  H         4.1638480287        3.0983888688       19.2846948314
  H         4.4881110403        3.4498717462       17.5914934752
  C         4.2206497233        1.2796141225       17.8874799136
  H        13.7582844362        3.3388320069       21.2129571556
  H        14.2178866307        1.8361797837       20.4317470063
  C        14.9789273415        2.0104169046       22.3158152702
  S         9.8042256650       10.0842586731       17.9143745371
  N         9.9995540832        9.6798761304       16.3392978009
  C        10.4732218600        7.5858091120       15.0787977388
  H        10.7859500122        5.5531015113       14.2930433176
  C         4.4098487545        1.0444860540       36.2294613364
  N         4.3385311762       -0.2866974161       36.3713238247
  O         4.6221093285       -2.2782316314       35.1103872882
  H         4.9873194412        0.5786372065       18.3070065442
  H         4.1954216279        1.2428138023       16.8049588016
  C         2.9229002193        0.7423804793       18.4125778429
  H        14.6226303830        2.0904867898       23.2827219440
  H        15.1994030280        0.9124093520       22.1807064930
  C        16.1912900323        2.9019506824       22.0833898622
  C        10.8297410698        8.3868982904       13.9520856272
  S         3.9790680850        1.9945210145       37.6505790656
  C         4.2098976460       -0.9269874031       37.7506024117
  H         2.7062435264        1.2310537396       19.4363474634
  H         2.0562048715        1.0635711550       17.8321835381
  C         2.9707770556       -0.7879999711       18.5230586052
  H        15.9160157185        3.9529999147       22.1825241727
  H        16.5037101839        2.8369339071       21.0719976037
  C        17.4068823362        2.5429125975       22.9420055246
  H        10.5956709412        9.4370785930       14.0340585708
  C        11.3289880057        8.0445018609       12.6601744994
  H         3.4503917705       -0.4975857600       38.3975988145
  H         3.9914495034       -1.9607622110       37.5778253678
  C         5.5458465640       -0.9573617594       38.4299145150
  H         2.0915264864       -1.0718193822       19.0619252038
  H         3.7599253722       -1.0611916901       19.2786599534
  C         3.1331776795       -1.4671698335       17.1032337028
  H        17.7054534701        1.6166845891       22.4544001344
  H        18.3380424801        3.1154341011       22.9055527308
  C        17.2179618419        2.2847585647       24.4486786368
  S        11.7712319382        6.4760938951       11.9444043765
  C        11.5698077628        9.1530187864       11.6502554347
  H         6.2946901650       -1.2319564865       37.7557577099
  H         5.8743323596       -0.0297008115       38.9431313327
  H         5.5938195317       -1.8625036751       39.0400288273
  H         4.2071152191       -1.6307823605       16.8774503437
  H         2.7474446692       -0.7159981265       16.3605177240
  H         2.6021191512       -2.4370539986       17.1392551576
  H        16.8001766322        3.1693134690       25.0163873118
  H        18.1840672646        2.1767883732       24.9764004759
  H        16.6605560800        1.3423668947       24.5422290748
  C        12.1694083152        7.3580259309       10.4666616114
  N        12.0234041910        8.7296380821       10.4805949376
  O        11.4140203392       10.3821422466       11.9224215418
  S        12.7278692913        6.6899241986        8.8960232276
  C        12.3004888273        9.6750947147        9.3490479310
  H        12.3394913724       10.6854707453        9.6952382533
  H        13.2884147026        9.5489829386        8.8947056107
  C        11.1602232658        9.8010057320        8.2947438340
  H        10.2330770824        9.5152052026        8.7287931399
  H        11.1185432936       10.8621697481        7.9060501335
  H        11.4973985064        9.1777820341        7.4863341553
  H         4.4137034544        1.6803603469       12.8719318966
  C         3.7215465058        2.4888394513       12.7148136429
  H         4.3083935141        3.3702711718       12.5359536008
  C         2.9228056083        2.0501410508       11.5252087730
  C         2.9163756223        2.5766526220       14.0139574292
  C         3.5119687092        2.3701896823       10.1916896254
  H         1.9008824462        2.5310833077       11.7610136650
  H         2.6243480456        1.0091309629       11.6196983045
  H         2.3459269566        1.6784097296       14.1996608099
  H         2.2613729464        3.4657580686       13.9440319089
  H         3.6475749680        2.5828982512       14.8422313562
  C         4.4400726277        1.1975708109        9.9092175225
  H         2.7658684986        2.2630047891        9.4228869149
  H         3.9733080844        3.3394826991       10.1018270193
  C         5.0707105288        1.4399824514        8.5351025794
  H         3.9419193706        0.2397372031        9.9972471305
  H         5.2123727850        1.3330227556       10.6456010604
  C         6.3222335192        2.3147036489        8.5515639962
  H         4.2808109293        1.7150014011        7.8966711449
  H         5.3106150939        0.5453138120        8.0518802450
  C         7.6309520279        1.5892480137        9.0769977631
  H         6.5191670746        2.8058648483        7.6556860970
  H         6.0866630474        3.1290699929        9.1689210344
  C         8.7854091954        2.5952925064        9.3021487279
  H         7.9360672189        0.9382966456        8.2804758584
  H         7.4548022477        0.9874049843       10.0033829824
  C         8.3995375047        3.9593827708        9.9584875777
  C         9.2395464478        3.2818624639        8.0359553613
  C         9.9383684424        2.0165553562       10.1371856056
  C         8.6971463532        5.0561779523        9.1142796344
  C         7.8595394899        4.3891401031       11.1881262403
  C         9.1647340453        4.5744324615        7.8798212162
  C         9.8296561530        2.5965581083        6.9445766626
  H         9.5496751684        1.7057563490       11.1278510343
  H        10.3854516005        1.1816454610        9.6510728275
  C        11.0987962088        2.9682175866       10.3307343953
  S         8.3749463016        6.5548803410        9.9220840725
  C         7.8156216806        5.7410693247       11.3316285224
  H         7.6820418127        3.6770899972       11.9692598174
  C         9.6329634863        5.1602700326        6.7366555725
  H         9.8573764530        1.5150978625        6.9006897607
  C        10.2612811947        3.1671398768        5.7633544771
  H        10.8345855162        3.9013659975       10.8271790903
  H        11.4764766301        3.4444422534        9.3854570703
  C        12.3661289162        2.3412793579       11.0685130524
  C         7.4864119518        6.4773869732       12.5792235873
  C        10.1485299563        4.4949544271        5.6167453061
  H         9.5456129653        6.2297009244        6.7136592140
  C        10.7558564766        2.7263307446        4.5773897493
  H        12.9873437230        3.2561050096       11.2036309328
  H        12.9009137635        1.6240166830       10.3998394118
  C        12.0519761390        1.6610677313       12.4103787492
  C         7.6205806390        7.8497124122       12.8184329395
  C         6.9968638128        5.7240715698       13.7309095395
  C        10.6502397913        5.1900625933        4.4218671728
  C        10.9997277610        3.8505302132        3.7928870416
  S        11.1122480245        1.2180278677        3.8639971862
  H        11.0920028163        1.1624919583       12.3678465270
  H        12.8499060383        0.9159055175       12.5446979195
  C        11.9136050202        2.5501406253       13.5924429075
  N         7.9876289359        8.8371013756       11.8807573808
  C         7.4356680557        8.4832980141       14.0398533124
  C         6.7777317602        6.3144086937       14.9719897182
  H         7.0174876396        4.5909767152       13.6339619018
  C        11.9276525305        6.0226087175        4.6956497812
  C         9.5755876114        6.0071029713        3.6277759179
  C        11.4680451605        3.4567806212        2.5407715435
  C        11.5511245394        2.0765366987        2.4268983106
  H        11.0185217872        3.1872571185       13.4046136161
  H        12.7198933598        3.2152384061       13.7210791510
  C        11.6627713945        1.7728934540       14.8475442994
  S         7.9661938309       10.3583951336       12.5393521039
  N         7.5419913585        9.9110458838       14.0234976621
  C         6.9877172160        7.7959509809       15.1856626669
  H         6.3537357429        5.6804220430       15.7550952339
  H        11.6824014135        6.7682356649        5.5345031713
  H        12.0873960918        6.7671042038        3.8774857281
  C        13.1797554095        5.2280727739        5.2236331417
  H         9.2614528867        6.8100686158        4.2179596339
  H        10.0853406044        6.5614096714        2.8234532274
  C         8.3302553084        5.2085741714        3.1818548893
  H        11.6406690923        4.1339665579        1.8232156462
  C        12.0064063463        1.3264827592        1.1025928798
  H        10.6469454196        2.0234212149       15.1890761294
  H        11.7692533374        0.6774954658       14.6398033940
  C        12.6352348325        2.0342520726       15.9462539949
  C         6.7684657546        8.5139600753       16.4607572221
  H        12.8107189246        4.7845681234        6.1645265356
  H        13.4725300413        4.3816095801        4.5463355186
  C        14.3659234163        6.1047884081        5.5911246143
  H         7.9210128054        4.8239432992        4.1233359342
  H         8.6730865610        4.3395745444        2.5498722303
  C         7.4057641359        6.1485739250        2.3717507165
  C        12.0265983576       -0.0458375565        0.8923467207
  C        12.2252117449        2.1218773564       -0.1003366134
  H        12.5162856842        3.0715245892       16.4047662214
  H        13.6451298769        1.8453521392       15.6036125293
  C        12.0911485068        1.1829606966       17.0433886654
  H         6.8363309832        9.5797215377       16.4498925609
  C         6.3243653168        8.1108487548       17.6771111326
  H        14.0964809874        6.9250950602        6.1863366019
  H        14.7278027257        6.4445446832        4.6291104513
  C        15.5034137319        5.3332724193        6.3541176427
  H         7.0677354236        6.8716151488        3.0587399317
  H         7.8701747931        6.6867014591        1.5170237001
  C         6.2298415389        5.3882734965        1.8744852044
  N        11.7409915309       -1.0340042273        1.8631679181
  C        12.1797799013       -0.5891775480       -0.3422750121
  C        12.3176571876        1.5819749037       -1.3961290455
  H        11.9834073907        3.1993313531       -0.0809744275
  H        12.8342438987        0.4097722123       17.4809950824
  H        11.1706531745        0.5661434426       16.8209875907
  H        11.7878003056        1.8651274344       17.8343288402
  S         6.0906083719        6.5094815713       18.2698765344
  C         6.2236332790        9.1621992390       18.6813697716
  H        15.4446428766        5.6942380404        7.3256726976
  H        15.2829763594        4.2618631200        6.3757966115
  C        16.8991578037        5.5420656541        5.6979345033
  H         6.3907021501        4.3608609903        1.6767163591
  H         5.9114969197        5.8108562758        0.9143973370
  C         5.0848840809        5.5549172203        2.7928778741
  S        11.8085857512       -2.5035768157        1.1758014551
  N        12.1995115908       -1.9714975971       -0.3244739042
  C        12.4465157554        0.1442087034       -1.5509713801
  H        12.3832241912        2.2421043242       -2.2538542829
  C         5.7320025872        7.2790835633       19.7788679564
  N         5.8745583459        8.6017898989       19.8465641852
  O         6.4120193682       10.3330042164       18.4763954974
  H        16.7490350674        5.2466097243        4.6697538678
  H        17.0093202193        6.5833293073        5.7668685627
  C        17.9733576373        4.8114278759        6.4011316196
  H         4.2748032447        4.9187743739        2.2153278259
  H         5.1925413140        5.0130023523        3.7430074246
  C         4.5718090522        6.9967391843        3.0265237962
  C        12.6434660841       -0.5995594795       -2.7727817668
  S         5.3887033702        6.5103848152       21.2922583869
  C         5.8592116971        9.3363759300       21.1119926693
  H        17.7136792862        4.5109817845        7.4641956112
  H        17.9631114087        3.8869129712        5.8472310244
  C        19.2176136458        5.5897385580        6.3519905101
  H         5.0649582300        7.4471172036        3.9381147401
  H         3.5227710922        6.8636235710        3.2904647051
  C         4.5289431737        7.9979892657        1.8545079246
  H        12.1946408887       -1.5842644382       -2.8191639526
  C        13.2844724791       -0.2607395522       -3.9420253196
  H         4.9418595796        9.0024833903       21.5935271562
  H         5.7271906798       10.4145814182       21.0785017200
  C         7.1030132012        9.1040896404       21.9968631912
  H        19.7511150810        5.1699412250        7.1090688243
  H        18.9636373456        6.6183136119        6.6382679605
  C        19.7813616847        5.4760514544        4.9413391691
  H         5.5177948982        8.4460280906        1.8314282302
  H         4.5047803272        7.4835352373        0.8900765033
  C         3.4184387334        9.1571779343        1.8897794487
  S        13.8680328412        1.2799747700       -4.4389177362
  C        13.2934415206       -1.2460749745       -5.0723899678
  H         7.5467253431        9.9744296817       22.3024620258
  H         8.0306905857        8.7364999769       21.4409278128
  H         6.9739502647        8.4427736559       22.8944895609
  H        18.9945691204        5.6968370543        4.1789351599
  H        20.4964078231        6.2704985871        4.7895526483
  H        20.3823347221        4.5932953003        4.6419920856
  H         3.6976862731        9.8769041364        1.1351877555
  H         2.5143298246        8.7405789836        1.5452348808
  H         3.3021233039        9.6256341415        2.8530323088
  C        14.2594221689        0.5776845583       -5.9836269797
  N        13.7640481993       -0.6489934306       -6.1607126875
  O        12.7354645220       -2.3217000356       -5.0297006879
  S        14.8165048469        1.4671424669       -7.3864211137
  C        13.6200131352       -1.4416571990       -7.3459532329
  H        13.7795825946       -2.5151294002       -7.0672642762
  H        14.4195553633       -1.1164194122       -8.0313895339
  C        12.3435073226       -1.2162214580       -8.1542039608
  H        11.6093053218       -1.7441848258       -7.5937486301
  H        12.4111784019       -1.6202301722       -9.2305690219
  H        12.2338824660       -0.1286166578       -8.2557977248
