352
 i =   119200, time =    59600.000, E =        99.8226637346
  H         9.3334617341        6.7037760825       32.2395147006
  C        10.2651575405        6.2132037704       32.4058734348
  H        10.9320206383        7.0268047287       32.2389337241
  C        10.3684520733        5.1900312175       31.2930156898
  C        10.2040802852        5.7470115588       33.8551361729
  C         9.9948803319        5.7140104801       29.9508403793
  H        11.3476765725        4.7807001044       31.3116662512
  H         9.8047165370        4.3459346128       31.4926567820
  H         9.4030004148        6.3199008278       34.2007802503
  H         9.9639215852        4.6688947764       33.8999631221
  H        11.1093248799        5.9995211609       34.3297872166
  C        11.0348028025        5.1950673623       28.9300890303
  H        10.0034126850        6.7877301993       30.0702780102
  H         9.0138809928        5.3320873214       29.6698899415
  C        10.9188226437        5.5647581278       27.4140702714
  H        11.9548477584        5.7320329283       29.2261510689
  H        11.1521021144        4.1247413930       29.0103636433
  C         9.8597898609        4.8303393349       26.5694606740
  H        11.8307212511        5.2049556887       26.9788918181
  H        10.8471248401        6.6643218905       27.3549407209
  C         8.5351736111        5.6158245572       26.3094024147
  H        10.2590777675        4.4090803467       25.6721617456
  H         9.6492780966        3.9703345903       27.2022866700
  C         7.3501560485        4.7823147152       25.6784296347
  H         8.1112379880        6.0372937612       27.1997612304
  H         8.6928544823        6.4881224296       25.6340260653
  C         7.0254970277        3.5140850157       26.4048895017
  C         7.7120422733        4.0624470369       24.4354379996
  C         6.0850773066        5.6806884421       25.5990996923
  C         7.1067818193        2.4159854632       25.5753819761
  C         6.5864766356        3.1046983489       27.6675375507
  C         7.6791497327        2.7023615254       24.3082934925
  C         8.0750717310        4.6692560561       23.1793091639
  H         6.2035341948        6.3864748410       24.8053682663
  H         5.8714499220        6.2665577459       26.4368145592
  C         4.8053293632        5.0228535917       25.2236981521
  S         6.5021492865        0.9766325211       26.2721237499
  C         6.2725500172        1.7977430599       27.7478450643
  H         6.4475541130        3.7791075495       28.4735584913
  C         7.8737409539        2.0531843543       23.1447268032
  H         8.1770234932        5.7315401101       23.2165572537
  C         8.2729560439        4.0241409929       22.0083972288
  H         4.7828114559        4.6477668429       24.2472875972
  H         4.6633922169        4.0899648983       25.8607228806
  C         3.5209873362        5.8659452426       25.2954171021
  C         5.7791994372        1.1271072343       29.0437257939
  C         8.2160628024        2.6551241460       21.9418885496
  H         7.7679419131        1.0032079214       23.0934926663
  C         8.6941227260        4.3647977765       20.7396321235
  H         2.8150941710        5.5501528558       24.4956718271
  H         3.7404268742        6.8954298710       24.9437715463
  C         3.0350683573        6.1631547926       26.7664753447
  C         5.7139218059       -0.2348896299       29.3113109842
  C         5.2761661722        2.0255098585       30.1591731568
  C         8.5072457382        1.9073970514       20.6347610016
  C         8.8657619600        3.2517550696       19.9264396657
  S         9.1465973777        5.9016611736       20.0395808900
  H         2.0592663530        6.6972868189       26.6894679250
  H         3.7153709208        6.6963985194       27.4157260036
  C         2.5802464729        4.8302721507       27.5259842765
  N         5.8602536053       -1.2734233370       28.4181552748
  C         5.2817789411       -0.7484439246       30.5235206421
  C         4.9050929441        1.5018945208       31.3598994700
  H         5.3001528832        3.0723565996       30.0546711940
  C         7.3030060534        1.2119225800       20.0236509173
  C         9.7937558452        1.1314259989       20.9043373210
  C         9.3095756167        3.6497396830       18.6154435089
  C         9.5032073785        5.0106771411       18.5437552807
  H         2.3754312321        4.0917317001       26.7445886264
  H         3.4146388780        4.3781816864       28.0425701109
  C         1.2984356556        5.0951655899       28.3755484331
  S         5.7722594706       -2.7288532513       29.1022538395
  N         5.2446548567       -2.1459401287       30.5791262539
  C         4.9255515739        0.0079604526       31.5804340762
  H         4.6269755362        2.1552294230       32.1433417761
  H         6.8851913591        0.5600601084       20.8100301215
  H         7.5575584792        0.4869155979       19.2551029289
  C         6.1856818753        2.2105889978       19.6136079015
  H         9.9484756230        0.3826435175       20.1373408179
  H         9.7885357739        0.5279248859       21.8548734424
  C        11.0746188544        1.9810327421       21.1239884211
  H         9.5819526660        2.9527578997       17.8409786977
  C         9.8259662043        5.8176356567       17.2780537545
  H         0.7851979098        4.1604262180       28.5706696871
  H         0.5391105836        5.6718684917       27.9027760572
  C         1.5671890659        5.8158072843       29.7207304666
  C         4.6064674385       -0.5838861451       32.8625067510
  H         6.4719266429        3.0759462458       19.0254176893
  H         5.8540775983        2.6090728912       20.6037002685
  C         4.9474844893        1.6861135986       19.0318382348
  H        10.9760677442        2.7992874143       21.9018252573
  H        11.3655921166        2.4611834873       20.1674446132
  C        12.2932388754        1.0982576715       21.4405723185
  C         9.8538701257        7.2512088284       17.1806610781
  C         9.9025259445        5.1715066062       15.9684632730
  H         2.4516702728        6.4421273134       29.6150760087
  H         0.7739958403        6.5373984248       29.9124019166
  C         1.7520003508        4.8602962919       30.9252117257
  H         4.7479776944       -1.6333039012       33.0327139103
  C         4.4120041435       -0.0538907720       34.1107935818
  H         4.1310635087        1.6245661352       19.7152273266
  H         5.2050899832        0.7016699622       18.7885616714
  C         4.5154288290        2.4380361681       17.7964998560
  H        12.1918500171        0.5676959343       22.3587847311
  H        12.4888656377        0.3137057383       20.7326469891
  C        13.5266412524        1.9566519992       21.4451037985
  N         9.7199136539        8.0868269464       18.2746544032
  C        10.1349639677        8.0181309118       16.0598106444
  C        10.2834336872        5.9487386931       14.8478307854
  H         9.6195168243        4.1598585288       15.8445053809
  H         2.2521986381        5.3326411740       31.7817301078
  H         0.8110921851        4.4961962129       31.3454632956
  H         2.3667198749        4.1040118565       30.5925986886
  S         4.0415941321        1.5582506616       34.5253718563
  C         4.5095325740       -1.0031443935       35.2279407337
  H         4.2964803465        3.4770427600       17.9608400637
  H         5.3938292350        2.4688929282       17.1811129930
  C         3.3641142374        1.6943343034       17.1129036868
  H        13.2004837481        2.8970031247       21.8270068128
  H        13.8584591584        1.9570586209       20.4629816866
  C        14.6318880015        1.4301086346       22.3969248762
  S         9.7621012664        9.6017706160       17.7767316845
  N        10.0875136927        9.3438611332       16.2426730635
  C        10.3365286906        7.4366056134       14.7678382924
  H        10.3210585514        5.3515740736       13.9604189942
  C         4.0445744250        0.9693551293       36.1764995762
  N         4.1924392506       -0.3466516269       36.4007797255
  O         4.8792339149       -2.1634615708       35.1463500220
  H         2.9984080064        2.2790824416       16.2651249743
  H         2.5226077069        1.7757907247       17.8235667642
  C         3.4882799353        0.2163549105       16.6729273778
  H        14.4275162009        1.6635009376       23.4712700868
  H        14.7435334711        0.3568460521       22.1331132427
  C        15.9365835519        2.2380704912       21.9826185320
  C        10.6095063519        8.2137427606       13.6283406681
  S         3.6837884050        2.0150205188       37.5208082826
  C         4.2201249625       -1.0384624058       37.7731678923
  H         3.0288355037        0.2121669496       15.6674840024
  H         4.6007298217       -0.1164007625       16.7272626064
  C         2.7358173583       -0.6845413786       17.6083402482
  H        16.0153647825        3.0888882915       22.5968129105
  H        16.0056825900        2.5440026579       20.9793027808
  C        17.2026466414        1.3847672460       22.4178327859
  H        10.6807638063        9.2595926039       13.6689541205
  C        11.0214359684        7.8219279254       12.3937776911
  H         3.8428108724       -0.4528794090       38.5755140344
  H         3.5643302033       -1.9136442839       37.6589656340
  C         5.6533168217       -1.4677649288       38.2853688665
  H         1.7918648387       -0.1583474069       17.9384650580
  H         3.2508358139       -0.8386662920       18.5375710894
  C         2.4868109587       -2.0476357964       16.9506173892
  H        17.3338351398        0.3715341745       21.9065534709
  H        18.1475790614        1.8371527893       22.2237513074
  C        17.1900674076        1.2445825395       23.9601535920
  S        11.5222153783        6.2678209049       11.9058237546
  C        11.1910235155        8.9029114527       11.3418832542
  H         6.4051739294       -1.5953190258       37.4794137657
  H         6.1239780514       -0.7590881480       38.9276967175
  H         5.6550712196       -2.3651870998       38.8239760319
  H         2.0187082070       -2.7871392836       17.5657712351
  H         3.3946979296       -2.5727429013       16.7338629874
  H         1.7602245164       -1.9701789381       16.0786825537
  H        16.9677663539        0.2858538213       24.3713613924
  H        16.4934662423        1.9838394568       24.4677952033
  H        18.2000711303        1.4856514216       24.2493777552
  C        11.8763882233        6.9950625249       10.3379419385
  N        11.7631767163        8.3077235324       10.2785357721
  O        10.8643834314       10.0921249772       11.3602472345
  S        12.5847736199        6.0554191423        8.9744256604
  C        12.1197872794        9.0661908401        9.1612171365
  H        12.4279398547       10.0478556778        9.4371670798
  H        13.0456102057        8.6285071680        8.6886059647
  C        11.0284803082        9.1436893929        8.1830988478
  H        10.0790896780        8.6590476437        8.5105753498
  H        10.7906619463       10.2521485491        8.0111375776
  H        11.3913530687        8.7181714385        7.2535848222
  H         3.1529132395        3.5672376244       12.5355604046
  C         3.0470111974        2.4894043072       12.6168793590
  H         2.3613190041        2.2873767578       13.3012703290
  C         2.5640197286        1.8549268645       11.3275141923
  C         4.3751773346        1.9381512248       13.1175182327
  C         3.4213360458        2.3095088002       10.0960861215
  H         1.5165688921        2.1135431095       11.1740434901
  H         2.6604653890        0.7752611354       11.3899325889
  H         4.5115723572        0.9016978957       12.9434023543
  H         4.6851737362        2.1501258592       14.1548217534
  H         5.0910472806        2.4749177010       12.5511470695
  C         4.1494162491        1.1422773200        9.5882620306
  H         2.8759660614        2.7220786544        9.2292470805
  H         4.1222083996        3.0977460091       10.4145638385
  C         4.8541936362        1.3470448489        8.2224636802
  H         3.4261830942        0.3548599520        9.4663892077
  H         4.9379296652        0.7776819413       10.2600100278
  C         6.0110036568        2.2559478803        8.4995705602
  H         4.1781942502        1.8850922857        7.5205000257
  H         5.2654635319        0.4282810126        7.7834892564
  C         7.3262612119        1.5758743526        9.0563285378
  H         6.3039394567        2.7572447719        7.5606922779
  H         5.7026827743        3.0101257426        9.1427284155
  C         8.5307389201        2.5025633827        9.0155451802
  H         7.5590596896        0.6808620657        8.4956751221
  H         7.2535958195        1.3115247189       10.1413245973
  C         8.1197498197        3.7716958481        9.7490477556
  C         8.9809694228        3.2305300211        7.8434665449
  C         9.8099649394        1.9343076955        9.6936009738
  C         8.4809215839        4.9252128129        9.0900567748
  C         7.5261653885        4.0851187295       10.9888311977
  C         8.9072029786        4.5623474287        7.8131278612
  C         9.4394441569        2.6930778707        6.6952154481
  H         9.4237411631        1.6151429013       10.6567570838
  H        10.2331658307        0.9983174234        9.2318677708
  C        10.8636026556        2.8943316562       10.0130353374
  S         8.3274451059        6.3693185080        9.9864179083
  C         7.5587724306        5.4299549474       11.2759037955
  H         7.2648226058        3.2246144932       11.5824855313
  C         9.4216274319        5.2550864126        6.7728784010
  H         9.5338144977        1.6285301534        6.7473723566
  C         9.7944246955        3.3409246990        5.5531549733
  H        10.5700281739        3.7531249600       10.5756936383
  H        11.2946436339        3.1768912593        9.0090068072
  C        11.9479865721        2.2734896821       10.9578749748
  C         7.0764275449        6.1032279669       12.5463683216
  C         9.8513100899        4.6880493855        5.5613368044
  H         9.4369455415        6.3064943353        6.8628804733
  C        10.2543325637        2.9926280352        4.3131695773
  H        12.8623991044        2.8494135056       10.9496764568
  H        12.1429100873        1.2606588478       10.5411775656
  C        11.5817852515        2.2086363439       12.4644004566
  C         7.3087538173        7.4675135978       12.9258421337
  C         6.6752390432        5.2206375384       13.6461274805
  C        10.3374811811        5.3895954883        4.3246698611
  C        10.5758875506        4.1001913031        3.5040495909
  S        10.6686491989        1.5143992360        3.5546574662
  H        10.9109425936        3.0882182784       12.6136607013
  H        11.0517932442        1.2794767817       12.5871166847
  C        12.6845668497        2.2596628386       13.4631984059
  N         7.7583761903        8.4235588170       12.0987134662
  C         7.0652335884        7.9578293752       14.1437862487
  C         6.5010327654        5.6998828957       14.9508871633
  H         6.6525143932        4.1396427601       13.5367490142
  C        11.6054756204        6.2639004499        4.5418634430
  C         9.1790576148        6.1270716122        3.6913037896
  C        11.0931271440        3.7760806264        2.2434746565
  C        11.1206881940        2.4046053785        2.1697550737
  H        12.7276602580        3.3302204756       13.7983518135
  H        13.5982697632        1.9860106446       12.9746720098
  C        12.5503473177        1.3984255595       14.7822100537
  S         7.6351897224        9.9037929887       12.7610860525
  N         7.0621858083        9.3699340204       14.1750287534
  C         6.5946006506        7.0986116246       15.2106956960
  H         6.3128190600        4.9649193202       15.7434665730
  H        11.4277606919        6.9385947317        5.4017237793
  H        11.7739317622        6.8881239474        3.6638421664
  C        12.8794850314        5.4761093555        4.9079276723
  H         8.7953217116        6.9096362314        4.3422992822
  H         9.5000403366        6.6800075521        2.7711329983
  C         7.9645798535        5.1998464180        3.2699725063
  H        11.4494778801        4.5137195827        1.5646735467
  C        11.5678784124        1.6169888562        0.9461770940
  H        11.6625907779        1.5725235445       15.3539558037
  H        12.4450855384        0.4062339313       14.4109203077
  C        13.7507703552        1.4191998088       15.8136967874
  C         6.4563159006        7.6331501193       16.5554454360
  H        12.6403001899        4.7714090263        5.7139364694
  H        13.1861476956        4.9864386775        4.0261620888
  C        14.0470712467        6.4353404646        5.3638587490
  H         7.6735753067        4.6387967351        4.1540645316
  H         8.1403043532        4.5244571344        2.4822650941
  C         6.6436543434        5.9498367823        2.9375167559
  C        11.6132428249        0.1842717944        0.7763840922
  C        11.8400500026        2.3899560746       -0.2814619629
  H        14.6921041243        1.6731765870       15.3442658777
  H        14.0035205506        0.3950017652       16.0503614289
  C        13.3936252606        2.2198033160       17.0226350023
  H         6.5158661012        8.6216632035       16.4766306288
  C         6.2474760665        7.1778683654       17.8334955180
  H        13.6490297230        6.8641561851        6.2971699012
  H        14.2765182734        7.2756090936        4.7465025371
  C        15.4177799713        5.7202198089        5.5770234011
  H         5.8689550999        5.3694869118        3.3683219848
  H         6.6039563778        6.8377261319        3.5320827088
  C         6.4790528100        6.3389602690        1.5293878564
  N        11.3527213317       -0.7918271619        1.7612449135
  C        12.0329510628       -0.4601758841       -0.3923530568
  C        12.2500157009        1.7613545787       -1.4396301706
  H        11.7749340346        3.4731483811       -0.2589674085
  H        14.2638277710        2.5877243926       17.6333483684
  H        12.6079764548        1.6542908871       17.6746342355
  H        12.9480291903        3.1861048339       16.6164524779
  S         5.8282540481        5.6482782417       18.3106244127
  C         6.1268985275        8.2367331501       18.8767130578
  H        15.4065530864        4.6994835616        5.9818906643
  H        15.9916784123        5.6786604101        4.6474531183
  C        16.2785130983        6.4304056828        6.5671304303
  H         6.7560228008        5.5168658907        0.8554067075
  H         7.1075757248        7.1776608606        1.3348243447
  C         5.0394551102        6.7178450525        1.0167647936
  S        11.3341238524       -2.2678916713        1.1732082411
  N        12.0744530534       -1.8459531072       -0.2278411978
  C        12.4389828520        0.2995298418       -1.5295644072
  H        12.2189132836        2.3791728294       -2.3676048221
  C         5.7156122182        6.3099426156       19.9343945439
  N         5.8366992477        7.6485778855       20.0061151637
  O         6.4133004165        9.4234441546       18.6922438425
  H        16.8842444509        7.1300600222        6.0211633216
  H        15.7282257597        6.9927996694        7.2304283546
  C        17.0638317384        5.3517484746        7.2903923599
  H         4.9837714437        6.9589549602       -0.0713809720
  H         4.3470014936        5.8596358478        1.1043912917
  C         4.4461725626        7.8632784928        1.8433712935
  C        12.7895954641       -0.4506442582       -2.7016513096
  S         5.3454256854        5.4114765014       21.3527099105
  C         5.9707768418        8.3552817414       21.2591697674
  H        16.3901808160        5.0362305107        8.1270628566
  H        17.2610262114        4.4927900964        6.6977462498
  C        18.4518018738        5.8310009125        7.7683935041
  H         5.2171495136        8.2725472303        2.5050538993
  H         3.5785576109        7.4203922319        2.4302134665
  C         3.8620119099        8.9607219970        0.9453816818
  H        12.8133812345       -1.5581772224       -2.6289703820
  C        13.3534648114       -0.0790802122       -3.8530236694
  H         5.3190779195        7.9751597729       22.0527848639
  H         5.7050476143        9.3803078802       21.1240541905
  C         7.3930852877        8.2948237210       21.8570121022
  H        18.6772317255        5.4880031623        8.7772196272
  H        18.4515735419        6.9145921892        7.8907084523
  C        19.5309358465        5.4524244056        6.7226665543
  H         4.7099009379        9.4333726688        0.5206642971
  H         3.2795169921        8.4845685935        0.1201039141
  C         3.0702012885       10.0415198000        1.7309317990
  S        13.8953324736        1.4360278141       -4.3121301536
  C        13.4302503789       -1.0788959524       -4.9354980374
  H         8.1056891538        8.7684898556       21.1926879523
  H         7.8359014235        7.2842746776       21.9446121248
  H         7.4147336588        8.6884430626       22.7879196771
  H        19.1719141543        5.8774956000        5.7641096741
  H        20.4512191761        5.9739088700        6.9681472848
  H        19.7175875636        4.4215488065        6.6030045776
  H         3.7663942585       10.8238768958        1.8043614052
  H         2.1581958123       10.4725437029        1.2812520414
  H         2.7728680006        9.7361887951        2.7275469907
  C        14.2248497571        0.7666983011       -5.9250630121
  N        13.9662071596       -0.5029282438       -5.9820659328
  O        13.0821793240       -2.2909419504       -4.8710195759
  S        14.9463100521        1.6413323237       -7.3718604882
  C        13.9701504194       -1.2403683545       -7.1898268856
  H        14.1730399656       -2.2778241753       -7.0006054386
  H        14.7848315092       -0.9683492298       -7.8524566525
  C        12.6511709707       -1.0150400637       -7.8801306731
  H        12.7157466109       -0.9293224832       -8.9903380415
  H        12.0954602370       -0.1492472295       -7.5922675134
  H        12.0718401383       -1.9270819703       -7.6902329347
