352
 i =    12600, time =     6300.000, E =       126.7089843332
  H        10.3585548166        5.0292314062       32.8921210361
  C        10.0937801590        6.0740118417       32.7658147650
  H         9.2636943451        6.3412830521       33.4211879771
  C         9.5175534426        6.1368105931       31.4183940808
  C        11.3146486986        7.1092873302       32.9850704575
  C        10.5374684472        6.1594524657       30.2972450377
  H         8.7325491293        5.3883684377       31.2955374772
  H         8.8906264364        7.1032827673       31.5069527839
  H        11.4253817420        7.6394660526       33.9325327420
  H        12.2733495918        6.5318495334       32.8639720989
  H        11.2418806522        7.8217069828       32.1729940978
  C         9.8985528268        5.5121884987       29.0473077143
  H        11.4712987171        5.6383167768       30.4532282809
  H        10.9422079027        7.1513559008       30.0140802945
  C        10.4528760756        5.8366684046       27.6025893514
  H        10.0409829259        4.3897941206       29.1578650393
  H         8.8422059781        5.7607321877       29.0633224093
  C         9.5885199651        5.2600700510       26.5063675307
  H        11.4700128056        5.4111438357       27.5407817632
  H        10.5952972667        6.8510863564       27.3280479014
  C         8.3387933824        6.0568492411       26.2216932181
  H        10.1828312414        4.9667745437       25.6410528575
  H         9.3811059226        4.2917241422       26.9158588127
  C         7.1356470609        5.2230473450       25.5829626058
  H         7.9632962101        6.5512819808       27.1212494350
  H         8.6421830553        6.8366786864       25.5907745151
  C         6.9057608101        3.8671440863       26.3800994612
  C         7.5799152594        4.4961860863       24.3279491579
  C         5.7637638171        6.0799925564       25.5893349582
  C         7.1452268040        2.7729124286       25.5599949170
  C         6.5401019390        3.4403156754       27.6972136697
  C         7.5950047530        3.1214062769       24.3005768004
  C         8.0284782518        5.1808193190       23.1392647178
  H         5.9421233083        6.9568112272       24.9674526025
  H         5.5138040279        6.4115650828       26.6164437878
  C         4.7071527267        5.1532316895       24.9469758195
  S         6.8315766388        1.3168073806       26.3540891861
  C         6.2713949460        2.1324697757       27.7393825739
  H         6.3731713731        4.2497176197       28.4121952900
  C         7.8541746522        2.5052622044       23.1131725651
  H         7.9323352708        6.2689190347       23.0811478893
  C         8.3875305755        4.4962188097       22.0303340057
  H         5.0186151490        4.8663785359       23.9033972464
  H         4.5324712008        4.2864904978       25.5254978497
  C         3.4215086683        5.9595748345       24.7038392465
  C         5.7336147478        1.4383656506       29.0118944191
  C         8.3748237552        3.1611827170       21.9459755245
  H         7.6828926705        1.4401954701       23.1030788333
  C         8.8074850156        4.9298620054       20.7643854610
  H         2.7848054290        5.2452177594       24.0472016981
  H         3.6868668931        6.7017105956       23.9714485691
  C         2.7790004115        6.5835224723       25.9390652518
  C         5.5738226251        0.0707107101       29.1910995706
  C         5.3233794932        2.1884393971       30.2131382718
  C         8.8614536010        2.4742061343       20.7029592090
  C         9.0922591290        3.8071303421       19.9081027582
  S         9.0563837760        6.3826051011       20.0187997928
  H         1.9834193399        7.1202539971       25.5191982152
  H         3.5042715280        7.2506024401       26.4564480583
  C         2.2202036923        5.5089001618       26.9321912077
  N         6.1383022513       -0.8626797688       28.2444791272
  C         5.1614004803       -0.4983304892       30.3687906823
  C         4.9520875021        1.6110794582       31.4600272901
  H         5.2174976682        3.2287617364       30.2306363103
  C         7.8165969402        1.5899140286       20.0505611521
  C        10.1458481412        1.6732178743       20.7878759783
  C         9.4192763270        4.2199309638       18.6326020839
  C         9.5074500825        5.5946949872       18.5230229914
  H         1.8642168031        4.5413316432       26.5146960427
  H         3.0757931602        5.1469616971       27.5257306399
  C         1.3498969228        6.0210793896       28.0144164479
  S         5.9336936304       -2.3896243920       28.9203661799
  N         5.2018709426       -1.9030193723       30.3036691960
  C         4.8710183007        0.1518097132       31.5587434831
  H         4.6147605823        2.2777934820       32.2394942813
  H         7.1873325088        1.0987673285       20.8700119592
  H         8.1930895437        0.7981165733       19.3843464191
  C         6.7260820734        2.3875676078       19.2701846342
  H        10.2819551522        1.4171008166       19.7305728341
  H         9.9471535876        0.6917728410       21.2373904259
  C        11.2796555947        2.3780276212       21.4887538105
  H         9.6130952931        3.5389971400       17.8753259769
  C         9.7989324415        6.3461274022       17.2323130112
  H         0.3964872935        6.2932740732       27.4476206551
  H         1.7136992651        6.7938096407       28.6820679078
  C         1.0259368606        4.9597995245       29.0392705580
  C         4.5942951348       -0.6124424714       32.7795558904
  H         7.1563941175        3.0458919541       18.5156013174
  H         6.2957889738        2.9450575153       20.0076159137
  C         5.5825166040        1.5781628047       18.7716423029
  H        11.0075779845        2.4807415447       22.5490371662
  H        11.3618985971        3.3577261750       21.0402855047
  C        12.6190044037        1.5469848501       21.4622322193
  C         9.7726529917        7.7783401076       17.1639186526
  C        10.1020657862        5.6760825551       15.9258741276
  H        -0.0797146256        4.7520502430       28.9225420154
  H         1.5295327025        4.0285091388       28.7146102269
  C         1.5754639834        5.3855077200       30.4564405892
  H         4.4890429345       -1.6746752431       32.6625350748
  C         4.4203661826       -0.1740459333       34.0656030336
  H         5.3434807558        0.8688002360       19.5545994662
  H         5.7632544131        1.0502580632       17.7742937608
  C         4.2695884213        2.3768690080       18.4759728513
  H        12.7403298308        0.8042083597       22.2150011815
  H        12.6636547687        1.0420900779       20.4519797381
  C        13.7791418696        2.6257594226       21.6701150899
  N         9.4796145736        8.6627566870       18.2339383887
  C        10.0643809592        8.4514466718       15.9762846793
  C        10.3187155600        6.3756678261       14.8069977065
  H        10.1647548864        4.5304281053       15.9443637446
  H         1.2857427006        4.6218908660       31.2504806783
  H         2.6641909342        5.3034638562       30.3679832810
  H         1.3869058600        6.3177636593       30.8332614643
  S         4.0718569094        1.4392547761       34.6622402343
  C         4.4542500633       -1.2331237145       35.0885436466
  H         4.1586118435        3.3364413687       18.9707057470
  H         4.3305011596        2.6066647026       17.3925603161
  C         3.0689908579        1.4737459254       18.7460222006
  H        13.5210572879        3.5967525917       21.4128658873
  H        14.6409689568        2.2461904440       21.0833007494
  C        14.1503906641        2.6795707372       23.1950795180
  S         9.6158549615       10.1858247890       17.6719034542
  N         9.9430187495        9.8497293468       16.1212859645
  C        10.4735564292        7.8704276168       14.8166627414
  H        10.5607294209        5.8251137915       13.9175882801
  C         3.8625778136        0.6362236793       36.2156201696
  N         4.1873123724       -0.6862934411       36.2655548140
  O         4.5533463039       -2.4535267782       34.9004846575
  H         2.1768708918        2.1772654841       18.7694274039
  H         3.1525109959        0.9783006800       19.7292479284
  C         2.9484346646        0.3449025075       17.6653157696
  H        13.4571818947        3.3026226526       23.7159963280
  H        14.0364052462        1.6027948186       23.5447524164
  C        15.5617841187        3.0640661868       23.5952502210
  C        10.8469429277        8.6605503285       13.6745839484
  S         3.6243225086        1.5409236200       37.6992801570
  C         4.3897087968       -1.4700613551       37.5477013424
  H         2.1602194018        0.7226021192       16.9446359879
  H         3.9421514824        0.2794965914       17.1134902500
  C         2.7138029363       -1.0898688064       18.2483372869
  H        15.3699694515        3.2993961755       24.6516041700
  H        15.8344949909        3.9423138731       22.9995704242
  C        16.5860255505        1.9632342463       23.4740148426
  H        10.4681662657        9.6988397883       13.8429049829
  C        11.3710715767        8.3722311677       12.4418175266
  H         3.5171028965       -1.2281281003       38.1524074051
  H         4.3225536625       -2.4736894806       37.2799848589
  C         5.7847592554       -1.2269912279       38.2229706035
  H         1.7554473937       -1.2001904687       18.6847308564
  H         3.4855990927       -1.3861122478       18.9611634769
  C         2.8919940361       -2.0990416483       17.1361626455
  H        16.3037570914        1.1944670999       24.1296170502
  H        16.6843686827        1.6118285381       22.4574073238
  C        17.9986940946        2.3834123442       23.7733394153
  S        11.9652383890        6.9003287582       11.7892011311
  C        11.3722139266        9.4668954606       11.4648035663
  H         5.7712379466       -1.3854586092       39.3547740811
  H         6.5430164000       -1.7819441802       37.7443903142
  H         6.1060419955       -0.2339017117       38.0234803197
  H         2.2804841663       -2.9642434701       17.3663679902
  H         3.8531727606       -2.6117666126       16.9535244585
  H         2.6915866569       -1.6706653006       16.1654228589
  H        18.7376097834        1.6085382679       23.4316898909
  H        18.2129893654        2.4373196562       24.8040730758
  H        18.1816738480        3.4125132093       23.4239830822
  C        12.2447996129        7.7341477948       10.2714334081
  N        11.9951377584        9.0829387345       10.3273589093
  O        11.0670300697       10.6469526845       11.7757986448
  S        13.0419915223        7.0804769020        8.8401013292
  C        12.0659676086        9.9336853659        9.1665141126
  H        12.0304945273       11.0474462507        9.4395578848
  H        13.0796501571        9.9328752879        8.7670848537
  C        10.8928409975        9.7427577196        8.1776434441
  H        11.2449474785        9.9089993508        7.2040887715
  H        10.5631952735        8.7548039287        8.0980367921
  H        10.0468608567       10.3556992165        8.1480277093
  H         4.2060113839        1.7605898063       12.9836343279
  C         3.5822594129        2.6520707732       12.9826991747
  H         4.2654861503        3.4607420076       12.9229146505
  C         2.5908843547        2.7598724322       11.8100900612
  C         2.9137610385        2.5897215578       14.3631272100
  C         3.4941483632        2.9635140117       10.5307684640
  H         1.8520345016        3.5875757397       12.0311857403
  H         1.9552583189        1.8667722465       11.5907415134
  H         2.2993958576        1.6976263705       14.4941760489
  H         2.1832485471        3.4279091606       14.4465531726
  H         3.5290827076        2.5633033134       15.1839428007
  C         4.2234824961        1.7788093074        9.9727031273
  H         2.9061204690        3.4476809986        9.8490828924
  H         4.2074768099        3.7372028924       10.6518487026
  C         4.9989354544        1.9675857382        8.6368016021
  H         3.5167582355        0.9554315305        9.9873631098
  H         4.8308855029        1.3180645209       10.6951149387
  C         6.3390099612        2.8282217566        8.6449708131
  H         4.2559477583        2.3343472610        7.8321632685
  H         5.2099169268        0.9531794235        8.2014965829
  C         7.6279771519        2.2059998137        9.2378068346
  H         6.5520920023        3.0054278186        7.6006134809
  H         6.1281195488        3.8691255319        8.9068495819
  C         8.8104512014        3.1780509704        9.3797785240
  H         7.9569507831        1.2643037227        8.6994918748
  H         7.3177064624        1.8251544090       10.2155444397
  C         8.4227640615        4.5133174095       10.0326269085
  C         9.2719023423        3.9452442273        8.1143772838
  C        10.0602165590        2.4913416468       10.0276738936
  C         8.7050382598        5.6116490686        9.2225100018
  C         7.7942594636        4.8289251605       11.2582980433
  C         9.2607387488        5.2927817329        7.9935028941
  C         9.8331518941        3.3346674198        6.9638572699
  H         9.7892325077        2.1615307995       10.9856766005
  H        10.3988834091        1.5616737905        9.5444917975
  C        11.2883793608        3.3717946745       10.1657853593
  S         8.4834172269        7.0787558117       10.0847067804
  C         7.7374481093        6.1570623428       11.4022252465
  H         7.6096464594        4.0674970637       11.9492323544
  C         9.6828038294        5.9741136267        6.9099096633
  H         9.6666097174        2.2561812663        6.9797497732
  C        10.2780873455        3.9861526838        5.8363052790
  H        11.0006316146        4.3182271058       10.5555604793
  H        11.8201586620        3.6246827109        9.2500399722
  C        12.2638601092        2.8740072287       11.2057239620
  C         7.3620240615        6.8352363909       12.6986658110
  C        10.0929033308        5.3269883646        5.7242990904
  H         9.5349818752        7.0420942996        6.9956051022
  C        10.6923907478        3.6404043464        4.5552260693
  H        12.9528208383        3.6487806467       11.1858673778
  H        12.7628287207        2.0939717185       10.7897565508
  C        11.6339106444        2.5236355085       12.5750563645
  C         7.4936308037        8.2108480796       13.0354956055
  C         7.0489115616        5.9670565206       13.9060972278
  C        10.4944660735        5.9824900041        4.4718994690
  C        10.7060701875        4.7345260644        3.7051642216
  S        11.0280448301        2.1294035178        3.7849874074
  H        10.7647139740        3.1560691516       12.7625682548
  H        11.2944990969        1.5310462071       12.6167628822
  C        12.6996920216        2.5540944541       13.6596708123
  N         7.7637323401        9.2258048917       12.0506732602
  C         7.0394897130        8.7196528214       14.2474898048
  C         6.7700586851        6.4349529264       15.1565960425
  H         7.0671178323        4.9005801369       13.7982328034
  C        11.7197018605        6.9054145684        4.6482378919
  C         9.2846069044        6.7540562314        3.9070420544
  C        11.0834782834        4.2735009646        2.3873681817
  C        11.2598098806        2.9243956322        2.2815140958
  H        12.7004612764        3.4643430578       14.1684692021
  H        13.6670083772        2.5496118884       13.1117832039
  C        12.6912760642        1.3535059747       14.5887480240
  S         7.7292019139       10.6832987761       12.8574425097
  N         7.0953071713       10.1356114764       14.2805724704
  C         6.6976917726        7.9115158323       15.3718566869
  H         6.6459509743        5.6850446018       15.9857608015
  H        11.4524139004        7.7391672717        5.2985617461
  H        11.8534586798        7.2907127234        3.5975034890
  C        12.9418799549        6.0605322538        5.1342964441
  H         8.8915295628        7.4344404451        4.6770977282
  H         9.6493547652        7.3922351130        3.0974931456
  C         8.0617565432        5.9219335911        3.4537719433
  H        11.2459143164        4.9386659246        1.5650814956
  C        11.5196218678        2.1439658740        0.9572494568
  H        11.6516195513        0.9424736147       14.6618492764
  H        13.2004521388        0.5301112920       14.1122058435
  C        13.3219620019        1.4978214608       15.9941470582
  C         6.4318340074        8.5540266981       16.6040609789
  H        12.7394663285        5.7737050269        6.1823080534
  H        13.0121323571        5.1222097969        4.6586436745
  C        14.1961142983        6.8768968596        5.3699507380
  H         7.7045073838        5.3158513956        4.2557960041
  H         8.2918149660        5.2271488423        2.6640844877
  C         7.0568767855        6.9927161004        3.0161358147
  C        11.6802987339        0.8075214439        0.8953903346
  C        11.8490429857        2.9399576633       -0.2710151241
  H        14.1874492503        2.1578758059       15.9561444461
  H        13.6417322306        0.5434103971       16.3625874164
  C        12.3139516781        2.0761541981       16.9884058980
  H         6.4522732966        9.5717113278       16.5751610429
  C         6.1465778146        8.0427795225       17.8343026069
  H        13.9460750393        7.4404950812        6.1689700640
  H        14.3873610304        7.5353588021        4.5386517787
  C        15.3959599899        6.0253435714        5.6399003189
  H         6.6502258559        7.5906288786        3.8025921719
  H         7.5421414825        7.7336744991        2.3728418042
  C         5.9541832285        6.4043566415        2.2131014049
  N        11.4399773142       -0.0478277055        1.9614938588
  C        12.0203142956        0.1367894406       -0.2345571337
  C        12.1662567547        2.2917540990       -1.4433281086
  H        11.7586003342        4.0050469478       -0.2731441359
  H        11.2423806588        2.0188166294       16.6966690692
  H        12.6717702037        3.1211571851       17.1339300961
  H        12.5277590178        1.7353502987       17.9004914685
  S         5.9405912702        6.4581345953       18.2861326267
  C         6.0012006069        9.0065088137       18.9422945088
  H        15.2310456368        5.0530576213        5.2700026408
  H        16.2514101829        6.4095620162        5.1134895038
  C        15.6532584689        5.6692568965        7.1006546096
  H         5.3723881317        5.7949746355        2.8612027881
  H         6.3246768669        5.7514926640        1.5216391229
  C         5.1039324077        7.2885800711        1.2862957193
  S        11.5401640448       -1.5667965131        1.3895033574
  N        11.8948657151       -1.2189821085       -0.1678935655
  C        12.2457334946        0.7804397025       -1.4675167003
  H        12.1849923871        2.8377443861       -2.3530800565
  C         5.7350620728        7.1035814259       19.9522364499
  N         5.8346957039        8.3599911948       20.0563298411
  O         6.0701060523       10.2407051705       18.7498709216
  H        15.5843634135        6.5973355103        7.7241027698
  H        14.7615855219        5.0704567423        7.4121743672
  C        16.8707227491        4.8690431894        7.1849870421
  H         5.8135289398        7.5736819538        0.5152831171
  H         4.3718614415        6.7631409051        0.7782466978
  C         4.2868556123        8.3457744150        2.0296515038
  C        12.5844743891       -0.0339859822       -2.6455644857
  S         5.4062626033        6.1174698839       21.3987271801
  C         6.0469832443        8.9989588311       21.3471412435
  H        16.7345058197        4.0868091898        7.9201279334
  H        16.7346466480        4.2787936107        6.3239850180
  C        18.1065811771        5.7217530810        7.1168055739
  H         4.9859293171        8.9339198092        2.6605666808
  H         3.5186696463        7.8742362224        2.6194790559
  C         3.5285571246        9.2630341718        1.0136488225
  H        12.2889200946       -1.0711836717       -2.4986738520
  C        13.2072049039        0.2868893631       -3.8498748514
  H         5.5147871356        8.5850993966       22.1850797237
  H         5.6676948963       10.0150369809       21.2696807912
  C         7.5225182613        9.0771425555       21.6554456393
  H        18.7158500121        5.5993017241        8.0308236251
  H        17.8019543502        6.7524958360        6.8352838803
  C        18.9514219399        5.1418221870        6.0344001762
  H         3.1224089692        8.6730550294        0.1138938350
  H         2.6635829543        9.6478350865        1.5058406874
  C         4.4621700562       10.3120958808        0.3398199737
  S        13.8397616061        1.8392717082       -4.3099518446
  C        13.5003007950       -0.7253919458       -4.8418000055
  H         8.1318177386        9.2305527093       20.7790719391
  H         7.9025310558        8.2013761405       22.2463537393
  H         7.6487618496        9.9547371130       22.3091606886
  H        19.9806509480        5.4101658518        6.1090831752
  H        18.9115923728        4.0794248384        5.9976455791
  H        18.5187902378        5.6123686212        5.1466297320
  H         5.0654067041        9.8980131714       -0.4681679015
  H         3.9615001155       11.2331343812       -0.0299217388
  H         5.0938509881       10.6936953721        1.1041566433
  C        14.1317928951        1.0991010042       -5.9180985916
  N        13.9748309279       -0.2166155995       -5.9302208571
  O        13.2713500855       -1.9696074273       -4.7138323403
  S        14.8565631083        1.8908868186       -7.3136071372
  C        14.1728169184       -0.9952841265       -7.0835749490
  H        14.2218764381       -2.0948003200       -6.9568582839
  H        15.1229185073       -0.8144849832       -7.5477605171
  C        12.9530705781       -1.0255192559       -7.9243169538
  H        12.7229994433       -0.0618412267       -8.2862910656
  H        11.9972672415       -1.3426163602       -7.4198071396
  H        13.0217051259       -1.6501712650       -8.7698843967
