352
 i =    57300, time =    28650.000, E =        99.9299876930
  H        10.6932185851        3.9109622168       32.1444153658
  C        10.3660953277        4.9184188008       32.3119182630
  H         9.3207855403        4.9406840593       32.1024606762
  C        11.1467748823        5.9584760865       31.5280478324
  C        10.4920430151        5.1710978043       33.7731759800
  C        11.2998782506        5.7161156058       30.0169034600
  H        10.5564457655        6.8780044870       31.5826033688
  H        12.0761015459        6.1082847211       31.9767264712
  H        10.4994722441        4.2325858069       34.3644936255
  H        11.2620713975        5.9607580254       33.7789953984
  H         9.6873705660        5.7950219019       34.0882763478
  C        10.1657600495        5.2587309395       29.1530488656
  H        12.1297915692        4.9539147945       29.9758968599
  H        11.7259633836        6.6453427228       29.6532798005
  C        10.5572257699        5.3493737501       27.6315189105
  H         9.9584794174        4.2903537005       29.4335487716
  H         9.2033509558        5.7641469566       29.2502654485
  C         9.5301166564        4.6201480646       26.7382634849
  H        11.5812753961        4.9721125511       27.3715324798
  H        10.6179710151        6.4235928004       27.3258719726
  C         8.2573726377        5.4331258643       26.3767898596
  H        10.0299585387        4.3539362804       25.7787926748
  H         9.2254004067        3.6601254241       27.1978142397
  C         7.1228873541        4.7097963781       25.5549766796
  H         7.7942425155        5.5633121073       27.3821074083
  H         8.5165397798        6.3873459950       25.9372885453
  C         6.7555660917        3.3636690190       26.2060770576
  C         7.5925501147        4.0245556005       24.2579262003
  C         5.8315113896        5.5699088211       25.4439088470
  C         6.9943144448        2.2724792653       25.3611965957
  C         6.1594204892        2.9328455162       27.3585640468
  C         7.4771517665        2.7103699533       24.0782680426
  C         7.9705853371        4.7254086317       23.1238020773
  H         6.1144876985        6.4208480995       24.9222094958
  H         5.5213806593        5.9877515499       26.4780771970
  C         4.5650509275        4.9279160944       24.8086769477
  S         6.5724010236        0.7587201690       25.9603528245
  C         5.9896819790        1.5210479982       27.3791583890
  H         5.7909106443        3.7553620490       28.0594819406
  C         7.9365019649        2.0973639289       22.9755053257
  H         7.8957220351        5.8071848772       23.3415978010
  C         8.3411357411        4.1054714018       21.9095738550
  H         4.6852128116        4.3042703779       23.9224591954
  H         4.1875821532        4.1561912681       25.6175140705
  C         3.4174723422        5.9177694370       24.7325130857
  C         5.5187059247        0.8239613892       28.6678748055
  C         8.4266993805        2.7654671310       21.8427137848
  H         8.0739387770        0.9896187487       23.1344383558
  C         8.8516193664        4.5121203231       20.6680080342
  H         2.6731572879        5.5774914560       24.0265839686
  H         3.8969482241        6.7949503789       24.2731597979
  C         2.6606730129        6.2119340425       26.0745301618
  C         5.6402273174       -0.5344825771       29.0272282860
  C         5.0102410526        1.6781980423       29.7824567721
  C         8.8662486517        2.0941475901       20.5778530731
  C         9.0857016606        3.4466665391       19.8003444994
  S         9.1172522231        6.0544292932       19.9695543785
  H         2.2861114691        7.1964399472       25.9630721009
  H         3.4754400761        6.3020558090       26.7329120466
  C         1.5861658899        5.1349455280       26.4141329125
  N         6.0550412344       -1.4820820511       28.0987237387
  C         5.3856467095       -1.1274102604       30.2488908241
  C         4.7691070684        1.1636829688       31.0754103133
  H         4.6853744008        2.6952475637       29.5972760854
  C         7.6939322237        1.1936346612       19.9937106554
  C        10.1450824968        1.2660650167       20.7902079052
  C         9.4504768344        3.8487761013       18.5534679473
  C         9.5521064038        5.1826195076       18.4667517681
  H         0.8195907845        5.1523841081       25.6686824717
  H         1.9355921185        4.0834385012       26.2825739105
  C         0.9290846832        5.2126404994       27.7812182444
  S         6.1889951675       -2.8836062729       28.8783523789
  N         5.5009144125       -2.5536993126       30.2470329431
  C         5.0277545214       -0.3081049239       31.3466275919
  H         4.3051431827        1.8736022854       31.7602091859
  H         7.3546284523        0.4187158644       20.6669928325
  H         8.0882961291        0.6601430143       19.0793374782
  C         6.4699491391        1.9219739979       19.6022554115
  H        10.1852697241        0.6994027773       19.8841374925
  H        10.0569601676        0.5584224463       21.6219181892
  C        11.4135548328        2.1474686202       20.9824473832
  H         9.6889771240        3.1098566055       17.7647167312
  C         9.9248502717        5.9790757592       17.3147471537
  H         0.1215481973        4.5008529432       27.8613582831
  H         0.3876791389        6.2323246146       27.8251997456
  C         1.9904129762        4.9832194002       28.8708011840
  C         4.7850515895       -0.9749072781       32.5871030807
  H         6.6920814975        2.7447575406       18.8868769160
  H         6.0394960802        2.4173109143       20.4559267673
  C         5.3482451227        1.0603206064       18.9917805429
  H        11.2019611128        2.8044639280       21.7835393058
  H        11.5476354794        2.8057125689       20.1295921045
  C        12.7654481465        1.4722775963       21.1517715883
  C         9.9946962258        7.4483442721       17.2845576012
  C        10.1373597437        5.2718383408       16.0030001856
  H         2.6631515055        4.1551281443       28.7950946721
  H         2.5990473319        5.8979426264       28.9053278766
  C         1.4610558989        5.0060063534       30.2814561122
  H         4.7990050924       -2.0356465691       32.5124547178
  C         4.4804789066       -0.4960502175       33.8309461391
  H         4.9191476132        0.4401783990       19.7442680857
  H         5.7359301648        0.3347326848       18.2887449699
  C         4.2623552763        2.0061245328       18.4086628313
  H        12.7970544650        0.8241752451       22.0487731064
  H        12.8578078846        0.7483454978       20.2686623059
  C        13.8842238916        2.4106057359       21.1682040012
  N         9.7194381407        8.3710573400       18.3063059362
  C        10.1838209660        8.1113700498       16.0366756785
  C        10.3565582474        5.9940197741       14.8483522482
  H        10.0139517873        4.2369348364       15.9036243488
  H         2.3499529269        4.8773283415       30.8691882311
  H         0.9561608657        5.9187085114       30.4727607698
  H         0.8596311903        4.2166413700       30.5257040178
  S         4.2505555511        1.1276303902       34.2320811182
  C         4.3828750774       -1.5036340941       34.8605973580
  H         4.0571844966        2.8514981113       19.0517748155
  H         4.5958098126        2.3435222306       17.4602253011
  C         2.9035882206        1.3314656619       18.2391306697
  H        13.7267746706        3.2416160566       21.8340407709
  H        14.1816276073        2.7826501927       20.1710846746
  C        15.1454077051        1.7104249791       21.6910735187
  S         9.8709264471        9.8873804989       17.7667920093
  N        10.0794515317        9.4936608125       16.1793005503
  C        10.4275515630        7.4832026464       14.8156353844
  H        10.4108772438        5.3415572251       13.9826749188
  C         3.8295856544        0.4340660826       35.8501760686
  N         3.8966768554       -0.9233256241       35.9617177526
  O         4.6450915779       -2.6797896469       34.6761417460
  H         2.4258218761        2.0415879300       17.5587511834
  H         2.4145238125        1.2030743585       19.2267144125
  C         2.9211569723       -0.1233143758       17.6406684855
  H        14.9438995689        0.9833202933       22.4432906413
  H        15.4157238171        1.1132484479       20.8430499027
  C        16.2570864883        2.7085629935       22.0644200012
  C        10.5989246448        8.3021338519       13.6440887885
  S         3.5145840672        1.3919996346       37.3171862855
  C         3.7610112009       -1.7310856117       37.1845133497
  H         2.5713397590       -0.0852199129       16.5854277032
  H         3.8579082981       -0.6034915655       17.5878929102
  C         1.9149740986       -1.0613406857       18.3012415322
  H        15.8891114726        3.5718722759       22.5171795787
  H        16.7493517264        3.0220392937       21.1288829779
  C        17.2489535041        2.0059864240       22.9817174437
  H        10.3572175486        9.3492822105       13.6857527317
  C        11.0025264855        7.9935365723       12.3626911196
  H         2.8536295463       -1.5352081585       37.7827679785
  H         3.5942522198       -2.7476239198       36.8367695284
  C         5.0365730647       -1.5863773357       37.9554198935
  H         0.9151326862       -0.5453398747       18.5021264751
  H         2.3459902734       -1.3352208732       19.3000742694
  C         1.5112063377       -2.2873156397       17.4438123583
  H        17.5930457402        1.0443785525       22.5364607824
  H        18.0600740765        2.7112920488       23.0100909293
  C        16.7797111567        1.8353913685       24.4039311722
  S        11.6843686471        6.4553271079       11.8507631224
  C        11.0533710157        9.1326437498       11.3417462044
  H         5.2391262217       -2.5985177570       38.3459658057
  H         5.8917494635       -1.3771082582       37.3484009814
  H         4.9292809753       -0.8068510779       38.7555323919
  H         1.3431029188       -3.1711747360       18.0055175470
  H         2.3434187047       -2.5176193916       16.8503659377
  H         0.7466041328       -2.0618277337       16.7766484794
  H        17.5822854635        2.1707886328       24.9853184946
  H        16.5193942571        0.8028206311       24.6612598937
  H        15.9866851798        2.6103326302       24.6472350205
  C        11.9983433882        7.2870196649       10.3688991017
  N        11.6832296293        8.6080389048       10.2574923890
  O        10.7950646358       10.3458866210       11.4346042633
  S        12.7733276666        6.4504559663        9.0214226212
  C        11.8741131625        9.4193123089        9.0134588193
  H        12.2876385533       10.3673486168        9.3084735719
  H        12.6475846588        9.0152282843        8.3662671645
  C        10.5782436962        9.7009084543        8.2438645840
  H         9.9399172098       10.4277623357        8.8083675193
  H        10.7612937264       10.0905217047        7.2919150341
  H        10.0680532004        8.7225199977        8.2098963628
  H         4.0698931411        1.5712608014       12.8492857542
  C         3.5958859077        2.4916920027       12.9688481716
  H         4.4035106618        3.2045450417       13.1498173242
  C         2.8584385919        2.7285196689       11.6727591996
  C         2.7040419703        2.3132190605       14.1744348453
  C         3.8730309304        2.8056680596       10.5194233863
  H         2.2891026273        3.6768319345       11.8124894381
  H         2.1755754162        1.9556035943       11.5018023249
  H         2.0838302286        1.4017902268       14.0145421958
  H         2.0337424079        3.2079524087       14.2897033946
  H         3.2487686038        2.2531661264       15.0718115790
  C         4.4142191374        1.5191790234        9.9497475248
  H         3.4405245907        3.3600072999        9.6889104655
  H         4.7916917935        3.3499050076       10.8138564244
  C         5.2328034312        1.6102030427        8.6092759091
  H         3.5735106428        0.8602217388        9.7110036904
  H         5.0795596813        1.0661442968       10.6204017307
  C         6.5552894577        2.4715216479        8.7872567386
  H         4.6065982175        1.9049196620        7.7741258672
  H         5.4784975972        0.5547163626        8.4090024471
  C         7.7651949681        1.7723601223        9.3554057361
  H         6.8524408778        2.8446442937        7.7864605490
  H         6.3679362786        3.3531127118        9.4558611546
  C         9.0135658740        2.6865553956        9.4243049154
  H         7.9325699160        0.8506918674        8.8453334445
  H         7.5985097810        1.3658679195       10.4407249253
  C         8.6071721300        3.9801498982       10.1025158703
  C         9.3857976944        3.4283707142        8.1506154949
  C        10.1053356386        1.9944147456       10.2150146473
  C         8.8191416993        5.0933870835        9.3618863685
  C         8.0975015871        4.3833703279       11.3444988388
  C         9.2705104003        4.7615933737        8.0928445135
  C         9.8160958540        2.8867187487        6.9041865992
  H         9.7119159573        1.7271913280       11.1124873841
  H        10.3102945513        1.0567741846        9.5836827279
  C        11.4246381660        2.8653680551       10.2998117115
  S         8.2554037189        6.5601499307        9.9958481953
  C         7.9251643627        5.7293660777       11.4455664955
  H         8.0035909920        3.6552201562       12.1090724268
  C         9.6250632192        5.5525472073        6.9789977351
  H        10.0846766640        1.8230928377        6.8620772617
  C        10.1470850376        3.6194769463        5.7975537136
  H        11.1404151558        3.9050121740       10.4602843251
  H        11.7712948521        2.9449231173        9.3055482157
  C        12.4313354388        2.3359099342       11.4053125777
  C         7.5211067572        6.3542588044       12.7051401716
  C        10.0279251761        4.9490471491        5.7605354818
  H         9.4980144501        6.6087788129        6.9544321461
  C        10.6586535393        3.2070858563        4.5840244258
  H        13.3816537288        2.8638354656       11.3248406273
  H        12.7332230747        1.3602199178       11.2812704220
  C        12.0042193930        2.4937837394       12.8706458280
  C         7.4870091432        7.7435578072       12.9750845742
  C         7.1587698305        5.5165052713       13.8527789303
  C        10.4184320753        5.6457654762        4.4024193439
  C        10.7785772528        4.3183087716        3.7878827860
  S        10.8732425036        1.7078570727        3.7594828758
  H        12.6446675590        3.2324765845       13.2907150950
  H        10.9901453733        2.9602560675       12.8755941921
  C        12.0027998134        1.2522657583       13.8069453339
  N         7.8132846181        8.7950368156       12.0775290641
  C         7.2347088825        8.2461133044       14.2081441575
  C         6.8840017947        6.0108893268       15.0939957577
  H         7.0009280448        4.4635401411       13.7663645991
  C        11.7097296150        6.5028380018        4.3750510289
  C         9.2886665880        6.2805349039        3.5164309280
  C        11.3402992230        3.8954134812        2.5660010285
  C        11.4318765264        2.5229092092        2.4461248050
  H        12.9385861169        0.6931205926       13.6328042357
  H        11.3053121422        0.4534658721       13.4286107241
  C        11.8531305400        1.7195520065       15.3039705124
  S         7.8278206467       10.2472462304       12.8592040324
  N         7.3660955435        9.6347129888       14.3240104562
  C         6.8907578186        7.4373319321       15.3423605705
  H         6.7567410088        5.3222339212       15.8733948272
  H        11.5038954326        7.4971759599        4.8659922984
  H        12.0821926121        6.7577651296        3.4286146489
  C        12.8621246283        5.8035644991        5.1122309165
  H         8.9252751284        7.0953882532        4.0685850859
  H         9.7765117141        6.6601429992        2.6277344099
  C         8.1360382948        5.3474522971        3.2222290822
  H        11.4424004618        4.6578150742        1.7481356376
  C        11.8448931738        1.7859532567        1.1954073462
  H        11.4861790062        2.7724365285       15.3014518469
  H        11.0198504298        1.0872415699       15.6848798161
  C        13.1043256689        1.7082262346       16.1056131585
  C         6.6123959269        8.0296666547       16.5940352830
  H        12.3641608555        5.3777533657        6.0273365720
  H        13.2805565373        5.0612991448        4.4487605357
  C        13.9746048926        6.7624456604        5.5021908366
  H         7.7089222436        5.0696615848        4.1462573307
  H         8.4266397720        4.4401532993        2.7210111501
  C         7.1286051475        6.0970962701        2.3672038945
  C        11.7710022075        0.3550344931        1.0040085137
  C        12.0316295224        2.6238463174       -0.0650575353
  H        13.9594993552        2.2708755707       15.6043150340
  H        13.4453745064        0.6725638772       16.1234279662
  C        12.8824295878        2.2394166003       17.4943522678
  H         6.7605111521        9.0854677053       16.6625396326
  C         6.1142871973        7.5326929025       17.7964951140
  H        13.8332773454        7.2016984044        6.4905844683
  H        14.1243044937        7.5213801156        4.7709495564
  C        15.3212933302        6.0194329763        5.4974674881
  H         7.3782519282        7.1772894098        2.3628413737
  H         7.2472181572        5.8101516934        1.3697569601
  C         5.6321351099        5.8983536469        2.6731242312
  N        11.4339013789       -0.5583036724        1.9891912466
  C        12.0152944809       -0.1838417042       -0.2298953989
  C        12.2624474044        2.0364350864       -1.3085806685
  H        11.9763285649        3.6404061334       -0.0188708363
  H        12.6058032456        3.2626963182       17.4654169389
  H        13.6545835998        2.1497415347       18.2538916424
  H        12.0244406752        1.6700501806       17.9137993423
  S         5.9547946253        5.8219679302       18.1912574723
  C         5.9616101546        8.5117443700       18.8393793030
  H        15.3720352988        5.2323533517        4.6632504431
  H        16.0371092926        6.7397423060        5.2505657583
  C        15.6082361552        5.5215036539        6.9033162088
  H         5.4196365991        6.2627398403        3.6759675174
  H         5.4543038108        4.8050368232        2.7583937700
  C         4.7489322584        6.3905834281        1.5369703340
  S        11.3349193853       -2.0283444695        1.2775976207
  N        11.8601134451       -1.5756151382       -0.2050342203
  C        12.3814689200        0.5635539999       -1.3969194846
  H        12.4038947534        2.7254313545       -2.1323952891
  C         5.7369621751        6.4459019716       19.8513302069
  N         5.6405108129        7.7728058735       19.9387492635
  O         5.9564844156        9.7537769754       18.7558708668
  H        15.8092078873        6.3935630287        7.5899480251
  H        14.8639033972        4.8453935788        7.3024881366
  C        16.8954322541        4.7134626428        6.9140203649
  H         5.3418145670        6.5190358371        0.6228258606
  H         4.0716483019        5.5690186205        1.3086770055
  C         4.0446151533        7.6650040737        1.9034994745
  C        12.6280368240       -0.1577977193       -2.6038923011
  S         5.2417307171        5.4915165481       21.2075637372
  C         5.4871872990        8.5461245269       21.1847750957
  H        17.0424933497        4.2329823291        7.8831669895
  H        16.6823120962        3.9221214747        6.1743804100
  C        18.1121434011        5.5986666888        6.6985908407
  H         3.8704007973        7.7133232256        2.9752162784
  H         3.0631466110        7.5502713775        1.4423508204
  C         4.7740972023        8.9096303953        1.4601491723
  H        12.3178502050       -1.1897690561       -2.5199512306
  C        13.0539207239        0.1422227518       -3.8757139092
  H         4.7267906298        7.9759645992       21.8053648873
  H         4.8621093010        9.4523421832       21.0002008507
  C         6.8866587740        8.7992155028       21.8508186513
  H        18.6054444895        5.7988711772        7.6666910160
  H        17.9392124164        6.6457988631        6.3474038512
  C        19.1483879429        4.8542408871        5.8601524060
  H         5.1617736010        9.5275275811        2.2509776334
  H         5.6005905373        8.5593750799        0.8098574749
  C         3.9175594185        9.9391621910        0.6707717547
  S        13.6362016887        1.7427356875       -4.3659679881
  C        13.2551582705       -0.9571282249       -4.8916812305
  H         7.4179395665        7.8195752227       22.0470336583
  H         6.8678967107        9.3604748201       22.8610574388
  H         7.4771322100        9.4106321972       21.1523167253
  H        18.8929155729        4.7583957344        4.8479630375
  H        20.1912852228        5.3067197032        5.8758289632
  H        19.2307339242        3.7730718036        6.2217496248
  H         4.5263606710       10.7685998404        0.2432263376
  H         3.1447489858        9.5053046201        0.0020257188
  H         3.3325415624       10.4495451697        1.4502505409
  C        14.0411264571        0.9368234029       -5.9179580054
  N        13.8653009764       -0.3892370925       -5.9162609459
  O        13.1900338404       -2.1816918353       -4.6624774532
  S        14.8926933587        1.7563186575       -7.2581451243
  C        14.1520073277       -1.1378231995       -7.1472468525
  H        14.1378560983       -2.2260277727       -6.8595193126
  H        15.1736498648       -0.8783028378       -7.5498330069
  C        13.1197143706       -1.1249363574       -8.2449843976
  H        13.3832584965       -0.3466617852       -9.0599206941
  H        12.0957418530       -1.0171059778       -7.8211155006
  H        13.2114446516       -2.1049661449       -8.7593873415
