352
 i =   131800, time =    65900.000, E =        99.7488185410
  H        10.5437557323        4.2899981936       32.2638430604
  C        10.6578979471        5.3424341284       32.3769473714
  H         9.6311742700        5.6341516020       32.4370356256
  C        11.3472230183        5.8615603161       31.1343356736
  C        11.3884127307        5.5315814023       33.7013835301
  C        10.9824689507        5.0866020212       29.8783129031
  H        11.0502006088        6.9249971686       30.9569877033
  H        12.4129688339        5.8424676454       31.2196814494
  H        12.2459683397        4.8704368745       33.7344169909
  H        11.7815251157        6.5479344355       33.8541381004
  H        10.7944770368        5.2225330572       34.5275001375
  C        11.6742032590        5.6198451466       28.5972552598
  H         9.9037941716        5.0243524113       29.8113304344
  H        11.2961905233        4.0394207517       30.0763608288
  C        10.7618318676        6.2930705589       27.6133919271
  H        12.4577566551        6.3529599838       28.9279220550
  H        12.1899633853        4.7437973842       28.1802824255
  C         9.7173831443        5.3606454920       26.9938942730
  H        11.3805918117        6.7861178516       26.8477948830
  H        10.2106940495        7.0407367016       28.2050274349
  C         8.5521744717        6.2015358400       26.4788332676
  H        10.1206174228        4.7674068052       26.1950060122
  H         9.3431256604        4.6766067725       27.7294614900
  C         7.4121675413        5.4534673260       25.7372909236
  H         8.0567570472        6.6349347930       27.3117737066
  H         8.9339785953        6.9119961195       25.7961296496
  C         7.0849632131        4.0950087785       26.4320771414
  C         7.8170812416        4.7796897567       24.4771940980
  C         6.0733384700        6.3357031221       25.6561929343
  C         7.2805606376        3.0164792231       25.5670695837
  C         6.6390896131        3.6600634982       27.6643615213
  C         7.7379536906        3.4409245286       24.3301486428
  C         8.2355240976        5.5137787222       23.3466067177
  H         6.2575328178        7.0533868434       24.8154175644
  H         5.9330857472        6.7496797871       26.6461423783
  C         4.9257068139        5.5178853737       25.0439031792
  S         6.8020779293        1.5028950172       26.2200351506
  C         6.4625713096        2.2919922020       27.7029178196
  H         6.3766494644        4.3985994654       28.4108539597
  C         8.1802539470        2.8375324322       23.1781759227
  H         8.2976472076        6.5638745882       23.3796217964
  C         8.5952828740        4.9062363107       22.1553830168
  H         5.1307485458        5.2882684461       23.9936041284
  H         4.7257149323        4.6284898175       25.6134542807
  C         3.6289018029        6.3259823126       24.9828045789
  C         6.0594752613        1.5362834348       28.9024621445
  C         8.5851941906        3.5467328900       22.0716593865
  H         8.1375257568        1.7889413200       23.0818733494
  C         8.9850271749        5.3307924040       20.9529912943
  H         3.0047127659        5.7765284108       24.2719401655
  H         3.8071497648        7.2865972701       24.5308625934
  C         2.8625145794        6.5347327446       26.3320345080
  C         6.0950506763        0.1467284138       29.1016645936
  C         5.6312074257        2.3807677314       30.1074171831
  C         9.0041887909        2.8879661233       20.8139763999
  C         9.2095471957        4.2631775612       20.1430168376
  S         9.2520022785        6.9109883904       20.3202459929
  H         1.9244320655        7.0115484725       26.1368374785
  H         3.4182551734        7.2113753042       26.8165064432
  C         2.5280193779        5.2581533718       27.1923716644
  N         6.4234857624       -0.7767860016       28.1001928609
  C         5.7701570024       -0.4234604112       30.2877438533
  C         5.2246783829        1.7465404258       31.2823438878
  H         5.6534951908        3.4490963539       30.1371869251
  C         7.9061424576        2.0165689381       20.0884851291
  C        10.2811859847        2.0642869179       21.0291469230
  C         9.6405449053        4.6445273794       18.8922108736
  C         9.7893611904        6.0541403777       18.8406625376
  H         2.1389534954        4.5804442317       26.4979435039
  H         3.4058682436        4.7189592013       27.5781905558
  C         1.4207530007        5.4156135910       28.2627470035
  S         6.2491013630       -2.2472763707       28.7730651755
  N         5.8788722716       -1.7850405495       30.2924406526
  C         5.3876863925        0.2648990703       31.5072275802
  H         4.8131631965        2.2737023794       32.1165218779
  H         7.5370928817        1.2878189652       20.8053288130
  H         8.4032675592        1.4234960444       19.3164876349
  C         6.6415033465        2.7229335324       19.6354485940
  H        10.4179866254        1.4493048391       20.0975439167
  H        10.0620393484        1.3668161475       21.8162784123
  C        11.5096971577        2.8074852960       21.3300855007
  H         9.7595625845        3.9548097132       18.0454001402
  C        10.1347385654        6.6870894993       17.4995578313
  H         1.1813429629        4.3840267095       28.5682029401
  H         0.4980692518        5.8019586092       27.8466352632
  C         1.9388255384        6.0778853185       29.5223700283
  C         5.1363286275       -0.4653409046       32.6939113434
  H         6.9687138762        3.4509932059       18.9276555943
  H         6.5071132680        3.2556349002       20.5210194389
  C         5.5156015309        1.7451497899       19.2939750651
  H        11.3138462453        3.4165547167       22.1772699664
  H        11.6940390091        3.4116054800       20.4191981048
  C        12.6764571407        1.8784346793       21.5258804382
  C        10.2748099924        8.0980074544       17.2999377257
  C        10.5801699407        5.8419457673       16.3236400074
  H         2.3214748191        6.9959982921       29.1467641343
  H         1.1366434696        6.3816440462       30.1543726292
  C         2.9864685833        5.2839902605       30.3097259441
  H         5.3312205851       -1.5141783540       32.6083080166
  C         4.9033403751       -0.0729080436       34.0065021609
  H         5.0767327569        1.4150962981       20.2661147619
  H         5.9223523969        0.8365178063       18.8547777810
  C         4.5280734777        2.3905237290       18.3344331797
  H        12.5353188675        1.3024378588       22.4243715333
  H        12.8586904234        1.2027984043       20.6073875544
  C        13.9920916514        2.5931318499       21.7329469411
  N         9.9527580573        9.0215833736       18.2396857482
  C        10.5354034540        8.6278902399       16.0563028990
  C        10.7530623242        6.4195085607       15.0672293519
  H        10.5352032732        4.8069666833       16.4541463413
  H         3.5543703051        6.0164833364       30.9096841775
  H         2.5629077429        4.6127347249       31.0414933315
  H         3.6622965988        4.6569336193       29.7728934553
  S         4.7455662469        1.5831177811       34.5415123736
  C         4.6294700628       -1.1320083889       35.0252415308
  H         4.4911184505        3.4629045125       18.4381901503
  H         4.8590042917        2.2282134623       17.3269249175
  C         3.1501087869        1.7174341273       18.4397661794
  H        13.7416253491        3.3802097511       22.5144932192
  H        14.2405014210        3.1278167458       20.7446563438
  C        15.1373745415        1.7255292363       22.1793178285
  S         9.9568865361       10.4811175144       17.5415442978
  N        10.3656461826       10.0195791581       16.0446354208
  C        10.8608656288        7.8814085229       14.9077035925
  H        11.2409404901        5.8011992028       14.2908403574
  C         4.5064295391        0.8195767196       36.1298425194
  N         4.5251115424       -0.4908045237       36.1755363349
  O         4.6410848061       -2.3478340764       34.7932340076
  H         2.4795091171        2.4761403479       18.1179713949
  H         2.8769969334        1.5418633113       19.5087529749
  C         3.1504130147        0.4870284409       17.5815887762
  H        14.9422617163        1.4207784025       23.2496409707
  H        15.1672841885        0.7996104646       21.7549833768
  C        16.4434047285        2.5109323752       21.9419551032
  C        11.1024944452        8.5550754760       13.6581042239
  S         4.0338097691        1.6532825716       37.6296572580
  C         4.7251406251       -1.3135936796       37.3906257320
  H         2.8090195614        0.8639727421       16.6067096230
  H         4.1414985315        0.0263165530       17.4533701114
  C         2.1691263431       -0.6114564758       18.0267241434
  H        16.3384952484        3.5090174967       22.4000261464
  H        16.4804434379        2.7560442606       20.9189833421
  C        17.7760622188        1.8482023928       22.1873686490
  H        11.1017071883        9.6099452178       13.8094498490
  C        11.5654060992        8.2145483717       12.4124687296
  H         4.2224273736       -0.9046554389       38.2256173486
  H         4.3378647645       -2.3540621806       37.1992317155
  C         6.2239254349       -1.3443472710       37.6857198444
  H         1.1765335757       -0.1283174633       18.2334713908
  H         2.3543353347       -0.8865664321       19.0853412569
  C         2.0121991912       -1.8186816926       17.0985197997
  H        17.9466265348        0.8950202369       21.6445205172
  H        18.5944047837        2.5608311701       21.9433225699
  C        17.9887638962        1.4859641174       23.6824123974
  S        11.8741913968        6.6369953636       11.7975713860
  C        11.7069070255        9.3197429234       11.4200094112
  H         6.4764904150       -0.5671535911       38.4007719182
  H         6.5925840924       -2.3209551807       37.9846151466
  H         6.7987331090       -1.1056753885       36.7699936896
  H         1.3904263300       -1.5869975995       16.1695593205
  H         1.5679131197       -2.6259381740       17.6547645386
  H         2.9350154871       -2.2435438352       16.7558281398
  H        17.3179739366        0.7819892196       24.0608863943
  H        17.9912964084        2.3993732838       24.2776628064
  H        19.0221427410        1.0266051605       23.7930557922
  C        12.2962812474        7.4899065646       10.2725144442
  N        12.0816296672        8.8612746417       10.2302532066
  O        11.3017711772       10.4522037056       11.5976346574
  S        13.1123320153        6.6224483744        8.9616085592
  C        12.2277417577        9.5781169485        8.9962669857
  H        12.6154594803       10.5873995137        9.0542654816
  H        12.9349191392        9.1192205165        8.3359824088
  C        10.8855989082        9.5755014435        8.2485338449
  H        10.9309840162        8.7819445176        7.4463389574
  H         9.9573484632        9.6412116861        8.8599840981
  H        10.7531665538       10.5585538129        7.8128974487
  H         5.0589342707        1.5417037724       12.7737556512
  C         4.3896314457        2.3375289882       12.9635266337
  H         5.0214099515        3.2264901154       12.9803316783
  C         3.4572545465        2.8774872679       11.8071381605
  C         3.7868059421        2.2928670049       14.4033955067
  C         4.1416570097        3.1031096995       10.4275261494
  H         3.1092395131        3.8198557891       12.1684184030
  H         2.5422697444        2.2229316972       11.7106779859
  H         4.5986358847        2.2274287364       15.0597537019
  H         3.2798779748        1.3550350748       14.4592385171
  H         3.1493174487        3.1806771108       14.6747320803
  C         4.6879953947        1.7871656932        9.7209552620
  H         3.4462148459        3.6229123543        9.7400951685
  H         4.9494970768        3.7863111851       10.5932482778
  C         5.5074833634        2.1539471037        8.5224513030
  H         3.7663238720        1.2762491388        9.4714550014
  H         5.3530405463        1.1218366234       10.2706852405
  C         6.7931281388        2.8566256646        8.7414978252
  H         4.9015758895        2.8345508756        7.9021983499
  H         5.5295058561        1.2884841619        7.8797139225
  C         7.9756892426        2.1721155064        9.4389941677
  H         7.1681376969        3.0257089928        7.7234329495
  H         6.5328803978        3.7997670945        9.2890857981
  C         9.2048069622        3.1173140562        9.4562732743
  H         8.4377401967        1.3194640222        8.9413986098
  H         7.6723603340        2.0743745581       10.4597109059
  C         8.9447011760        4.4717064846       10.1807388804
  C         9.6691487642        3.8523798733        8.2074523933
  C        10.3397562199        2.3987102906       10.1739161246
  C         9.2118743866        5.5083943365        9.3449473619
  C         8.3774170552        4.9219026919       11.4012778234
  C         9.7709935017        5.1795412967        8.0868308366
  C         9.9847906633        3.1869284526        7.0112032441
  H        10.0548963265        2.1987296066       11.2232031418
  H        10.5117775625        1.4099837044        9.6346512432
  C        11.7216146257        3.1737327067       10.3083223627
  S         8.7099039664        7.0620966132       10.0366435526
  C         8.2631094258        6.2416740732       11.4974205090
  H         8.2133596768        4.0990297455       12.0958590896
  C        10.1299500709        5.7738093353        6.8756000929
  H        10.0167879160        2.0776602420        7.0430571010
  C        10.3700744785        3.7142622741        5.8130333204
  H        11.4454379365        4.1623956308       10.7141259281
  H        12.0508768827        3.3886017778        9.3041861533
  C        12.6730094586        2.4239310810       11.2086536819
  C         7.8134757466        6.8498480820       12.7493099081
  C        10.4360974761        5.0735561217        5.6582215332
  H        10.2887244515        6.8205595280        6.9404596010
  C        10.8414704207        3.2800403639        4.5768161794
  H        13.7186465666        2.5864113167       10.8709714124
  H        12.5560410211        1.3748480064       11.2381219313
  C        12.6321066910        2.9853149978       12.6541685252
  C         7.9252205627        8.2176247969       13.0554684685
  C         7.3638082377        5.9236491245       13.8564868900
  C        10.9247334676        5.7133828433        4.3753281099
  C        11.1592706167        4.3641205630        3.7403097893
  S        11.0304846843        1.7713306067        3.8050068158
  H        13.1235241145        3.9633537001       12.6006478524
  H        11.6656592550        3.2952758159       12.8779644793
  C        13.1266006712        1.9983543695       13.7650808636
  N         7.9949450135        9.1700780887       12.1247209377
  C         7.4983613680        8.7102065183       14.2534928506
  C         7.0375707266        6.4304120811       15.1152591835
  H         7.1592482472        4.8365710660       13.7121264893
  C        12.2206806623        6.4599528219        4.6156078891
  C         9.7924489372        6.5506155510        3.5949277197
  C        11.7098961419        3.9340239527        2.5189315351
  C        11.6616130623        2.5780501953        2.3504094176
  H        14.1978029589        1.6800905061       13.6155188138
  H        12.4461456185        1.1731237237       13.6729814826
  C        13.0948039402        2.6728259578       15.1402923873
  S         7.9425067684       10.6275471221       12.8178113789
  N         7.5762838883       10.1067226798       14.3174862803
  C         7.0960089762        7.9293264657       15.3507065741
  H         6.7611925744        5.8134189020       15.8816605571
  H        12.1130878644        7.1403600016        5.5014471949
  H        12.3789938901        7.0121364070        3.7262516831
  C        13.3429884407        5.5688604687        4.8684576323
  H         9.1111203257        7.0273158000        4.2895220950
  H        10.1589401762        7.4073287551        2.9382556964
  C         8.8920206959        5.6601326284        2.6882628641
  H        12.0964325235        4.6769271349        1.8808076715
  C        12.0113000029        1.8554315961        1.1294122403
  H        14.1256444442        2.8290416192       15.3293080911
  H        12.6491876724        3.6602840624       15.0709635386
  C        12.5842772246        1.7082422868       16.2723956757
  C         6.8732792807        8.5924418113       16.5291241514
  H        13.1525463906        5.0296416230        5.7965092285
  H        13.5223854447        4.7702719826        4.1561665584
  C        14.6400632640        6.2689636327        4.8451190230
  H         8.5412850376        4.7148121157        3.1581256572
  H         9.4209694618        5.3124629557        1.8068248959
  C         7.7708707195        6.5033796527        2.0966162374
  C        11.8656879825        0.4741038635        0.9012011591
  C        12.2402709985        2.6890608567       -0.0775663091
  H        13.2788174728        0.8934464073       16.3292051960
  H        11.5828946429        1.3274731089       16.0922588482
  C        12.6170744237        2.3137893812       17.6837750430
  H         7.0409359860        9.6803474527       16.5214576725
  C         6.6612725618        8.1067150478       17.8315057903
  H        14.5152109901        7.2482754146        5.4206795342
  H        15.0630976056        6.5187198984        3.8622745056
  C        15.6501642791        5.3784435407        5.4918136306
  H         7.3475438854        7.1441515617        2.9205238440
  H         8.1583005760        7.1487662714        1.3098373023
  C         6.5931554432        5.6500892537        1.5963037719
  N        11.4874876662       -0.5036516768        1.8662560747
  C        12.2107582534       -0.0779934424       -0.3225523490
  C        12.5038619148        2.2056746566       -1.3177893368
  H        12.3898541481        3.7802088133        0.0469751959
  H        12.3288141651        3.3131570662       17.7103068552
  H        13.6009626709        2.2869421344       18.0399890615
  H        11.8823634635        1.7991655485       18.3556959366
  S         6.5078565204        6.4489652846       18.4663759949
  C         6.4073288669        9.1070137586       18.8831184326
  H        15.3327633194        4.9609757079        6.4466395865
  H        15.7958528516        4.5690334075        4.6860441856
  C        16.9410710660        6.1990577597        5.6878868021
  H         5.9299726709        5.5931575824        2.4756387642
  H         6.9986529485        4.6612238871        1.4195672189
  C         5.8651012859        6.2967647297        0.4227172119
  S        11.7736261901       -2.0066940258        1.2289400614
  N        12.2158912403       -1.4634047974       -0.2600358212
  C        12.5727121603        0.7126199531       -1.4533956343
  H        12.7602136545        2.8991660324       -2.1365694209
  C         5.9858402025        7.1898291845       20.0259035073
  N         6.0207515615        8.5269042152       20.0570887053
  O         6.6400762451       10.3279194943       18.8097257717
  H        17.3509745781        6.2663150840        4.7216710642
  H        16.7474509995        7.2345197984        6.0516358595
  C        17.9336587091        5.5056108878        6.6220353135
  H         6.5973756044        6.6097671075       -0.3602018119
  H         5.2223593285        5.5645506804        0.0212163528
  C         5.1340517947        7.5750335081        0.8240958326
  C        12.8391255807        0.0181235612       -2.6946424377
  S         5.4827856308        6.3322901604       21.4960568773
  C         5.8472008547        9.4044811180       21.2286862800
  H        17.3951910528        5.3484419494        7.5360911174
  H        18.2264940149        4.5304947222        6.2893043744
  C        19.1027275614        6.3887455998        7.0111810654
  H         5.6456497776        8.2193844557        1.5459647331
  H         4.2901135413        7.1702514824        1.4591774133
  C         4.4274371191        8.3382825707       -0.3125640905
  H        12.5360332055       -1.0041959479       -2.6980927119
  C        13.3543513592        0.3238304301       -3.9197479372
  H         5.2973968037        8.9317453563       22.0533796004
  H         5.2648652045       10.2061315078       20.8824720093
  C         7.2417659463        9.8236954272       21.7785400280
  H        19.6635472055        5.8368044241        7.7740509027
  H        18.7759760036        7.4137244904        7.3121982122
  C        20.0343442382        6.5349405247        5.8214933419
  H         5.1904798804        8.7894741127       -0.8934361016
  H         3.8477797351        7.7051163526       -1.0382756291
  C         3.4256828962        9.4396844176        0.1319638785
  S        13.9647970381        1.7825662017       -4.4022100704
  C        13.5049397966       -0.7807433817       -4.9085352991
  H         7.5801360691        9.1032242108       22.5831396343
  H         7.1607436181       10.8072932567       22.2836586015
  H         8.0352767714        9.8741053046       21.0411233381
  H        20.0102307187        5.6197515913        5.2377224585
  H        19.5618153709        7.3370501626        5.1634771071
  H        21.0522960590        6.6766937911        6.1241513261
  H         4.0516700714       10.1988353334        0.4859704009
  H         2.6660508454        9.6790771308       -0.6382823289
  H         2.9453969873        8.9676038878        0.9929113323
  C        14.3974456116        1.0041450764       -5.9687150890
  N        14.1661648690       -0.3269386937       -5.9641142023
  O        13.2325343344       -1.9145532327       -4.6989675455
  S        15.3632698830        1.7229893134       -7.2771573790
  C        14.3348835538       -1.1955875388       -7.1236437862
  H        14.5717067062       -2.2028234202       -6.7750736138
  H        15.2213053003       -0.8803103132       -7.7834320780
  C        13.0927785650       -1.0861242886       -8.0801079614
  H        12.3759359227       -1.9099535210       -8.0590292650
  H        13.2585642141       -0.9455600772       -9.1452416152
  H        12.4787604186       -0.3016114346       -7.6898294609
