352
 i =    51400, time =    25700.000, E =        98.9379628870
  H        10.1911586272        3.8391155524       32.6669907526
  C        10.1530718706        4.8659156864       32.8721068904
  H         9.2561610934        5.3245892841       33.3333213158
  C        10.1610920028        5.6853010606       31.5705459927
  C        11.4169016626        5.0726825264       33.7286634879
  C        10.1958361158        4.8456598543       30.2826066949
  H         9.2698220233        6.2572030477       31.6103061180
  H        10.9897404820        6.3793894818       31.6872492224
  H        12.2172826518        5.2277539860       32.9928000439
  H        11.3379170050        5.9143014055       34.4753575956
  H        11.6434330992        4.2231165374       34.3144536957
  C         9.9610642111        5.8174903762       29.0878037869
  H         9.4645085046        4.0475115880       30.3472289263
  H        11.2353166773        4.4248913374       30.1724828911
  C        10.4394925149        5.3355890436       27.6944773656
  H         8.9118915204        6.0759324794       29.0869947051
  H        10.4029485637        6.7466427757       29.4360821626
  C         9.2516298067        4.7368609262       26.9800976035
  H        11.1460226914        4.5095171581       27.8151910919
  H        10.9384428477        6.1229547571       27.1171135296
  C         8.2520406356        5.6750404322       26.3515676978
  H         9.6840026036        4.0041018714       26.2677409174
  H         8.9195947166        4.1106472483       27.7546418055
  C         7.0906886383        5.0553765067       25.6463199628
  H         7.9039523532        6.3927275494       27.1480873324
  H         8.7556503632        6.2804371123       25.6013206549
  C         6.7109224199        3.6993458580       26.3162282442
  C         7.5495684579        4.3518527354       24.3998935107
  C         5.8995831383        6.0302059131       25.5183441630
  C         6.9792141364        2.6256959131       25.5181262962
  C         6.1949455397        3.3266831917       27.5578639780
  C         7.5124927757        3.0025319364       24.3193424989
  C         8.1125625533        4.9232820918       23.2303221512
  H         6.3141610998        6.8376587009       24.9801722495
  H         5.6002555119        6.4590825756       26.4825061753
  C         4.7464058134        5.4596120278       24.7272691282
  S         6.5515216167        1.0876971676       26.3042039829
  C         6.1471423195        1.9582422518       27.6770039463
  H         5.9881294128        4.0979823768       28.2313115098
  C         7.8336989650        2.3528276410       23.1528830761
  H         8.1001656096        5.9988725687       23.2978584907
  C         8.3798651045        4.3323692435       22.0722619479
  H         4.9865829960        5.2943490343       23.6911377203
  H         4.3102037199        4.4179235757       24.9038979618
  C         3.5872994357        6.4453030334       24.6472263133
  C         5.5945556542        1.2922782507       28.9160788782
  C         8.2707629885        2.9893274539       21.9284934793
  H         7.5855082308        1.3535140538       23.1453827019
  C         8.7692035311        4.7209200127       20.8264259732
  H         2.9414558421        6.1979235882       23.9076316972
  H         3.9952713765        7.4089870443       24.4646160761
  C         2.6821476493        6.4088370956       25.8567019499
  C         5.5586000729       -0.0862046488       29.1784385143
  C         5.1031170323        2.2051944146       29.9984629319
  C         8.6857372444        2.3115983651       20.6626122689
  C         8.8882221597        3.7019328749       19.9557732575
  S         9.0768491660        6.2316030716       20.1797872792
  H         1.9283394061        7.2176781900       25.5578268963
  H         3.0834616403        6.8749404417       26.8257560278
  C         2.1619134244        5.1253771926       26.3441444407
  N         5.9283993354       -1.0690013221       28.2094811285
  C         5.1805355562       -0.5697552298       30.4121344355
  C         4.6573606593        1.6945131276       31.1793009769
  H         5.1696781657        3.2909466515       29.8773925763
  C         7.6146347916        1.5092686865       19.9074400286
  C        10.0292080013        1.5779217701       20.7182535320
  C         9.3060881952        4.1342386291       18.6086085115
  C         9.4126591164        5.4960755465       18.6272743062
  H         1.6453352130        4.6686693518       25.5226138964
  H         3.0090195295        4.5518295764       26.7527727974
  C         1.0381695400        5.1523373519       27.4525779808
  S         5.8709387153       -2.4837242750       29.0350310574
  N         5.2436529678       -1.9811078590       30.4407762199
  C         4.7813055069        0.2017773136       31.4620356883
  H         4.2608445906        2.3312149670       31.9779604560
  H         7.2426788627        0.7382245385       20.5816160981
  H         8.0081067873        1.1662523293       19.0577673237
  C         6.3554627520        2.1786147203       19.3567408347
  H        10.1221106119        0.8439273756       19.9388227289
  H         9.9436854235        0.8577273724       21.5474447763
  C        11.2941514068        2.4296363849       20.8068907589
  H         9.4242028341        3.4533229750       17.8173727707
  C         9.8102918680        6.3739619655       17.4440073734
  H         0.1734342342        4.5167963729       27.2703957040
  H         0.5429433829        6.0856424599       27.5178747791
  C         1.7218083758        4.8072161075       28.7959310460
  C         4.5246313437       -0.4626859300       32.6467368848
  H         6.3892519453        3.2625865856       19.3786811777
  H         5.5130193520        2.0213347785       19.9717581265
  C         6.0794880921        1.7894977041       17.9764921068
  H        11.1322331884        3.0742553631       21.6252100544
  H        11.4830586656        3.1382719428       20.0011374327
  C        12.5947803179        1.6159343056       21.1484406405
  C         9.7505257822        7.7805318991       17.3853460482
  C        10.0994899782        5.7029753529       16.1563315520
  H         2.1098940730        3.7523930575       28.7695613604
  H         2.6576934166        5.4306922549       28.8555868518
  C         0.9164348042        4.9967090200       30.0646418427
  H         4.5918251657       -1.5497367688       32.6057427888
  C         4.3590663785       -0.0484526299       33.9728974240
  H         6.1591483179        0.7458334037       17.6795125463
  H         6.9278535940        2.1505050541       17.3653768008
  C         4.7913450872        2.4312327813       17.4781089558
  H        12.4150537503        0.9879351924       22.0099271726
  H        12.7228579443        0.8808924671       20.3580130481
  C        13.7644687466        2.5070900794       21.1865219171
  N         9.4226255965        8.5649259419       18.4491744493
  C         9.9953305785        8.4747221243       16.2056177456
  C        10.3963895163        6.3827892992       14.9677445484
  H        10.2658117325        4.7053012668       16.1056320777
  H         1.5463804259        4.7375065214       30.8930019956
  H         0.5220999016        6.0160816090       30.0773277635
  H         0.0294250108        4.3617927916       30.0006216287
  S         4.1397917698        1.5734719192       34.5933980582
  C         4.3984085016       -1.2018678337       34.9209728719
  H         4.6210500024        3.4295952952       17.9300878120
  H         4.8485573101        2.4195976961       16.4107622001
  C         3.4842092667        1.6551551766       17.6548402602
  H        13.6533995898        3.3260715625       21.8658159909
  H        13.9104157631        2.9699796924       20.2197407714
  C        14.9876376510        1.7852721983       21.6610221892
  S         9.4197453493       10.0838991399       17.9375130159
  N         9.8701199806        9.9098919842       16.3912532512
  C        10.3734471941        7.8882032792       14.9688952963
  H        10.6925532602        5.8380910820       14.0777179264
  C         4.0553608428        0.7294712344       36.1383487537
  N         4.1375806380       -0.6502266071       36.1512833900
  O         4.4520774479       -2.3895806314       34.6325243890
  H         2.6619319161        2.2773780853       17.3182269677
  H         3.3794005326        1.5356392254       18.7642474107
  C         3.2277467422        0.1983710145       17.0969219285
  H        14.9143469651        1.2017157411       22.6220471392
  H        15.2012629161        1.2177261915       20.8011749742
  C        16.1212001176        2.7427117211       21.8620829048
  C        10.5845834217        8.6375491600       13.7963871146
  S         3.8301057556        1.5782700023       37.6720031868
  C         3.9838657564       -1.4631033355       37.4040950161
  H         2.8995583894        0.2289083967       16.0290666552
  H         4.1399558630       -0.4207395966       17.0813551248
  C         2.2703202140       -0.5786987495       18.0453793739
  H        15.8681213162        3.6746346934       22.4064216647
  H        16.3888310656        3.0604339867       20.9007207291
  C        17.3069429011        2.0094966784       22.5949922763
  H        10.3829825538        9.6660424860       14.0118620614
  C        10.9296224964        8.2894957642       12.4598265577
  H         3.2195471107       -1.1477742034       38.1226108821
  H         3.6149052075       -2.4564519846       37.0822490622
  C         5.3935101299       -1.7434549644       37.9531848378
  H         1.3197438628        0.0024140720       18.0761189799
  H         2.6083636490       -0.6226080400       19.1082740727
  C         2.0257923392       -2.0432730746       17.5711677059
  H        17.6289831354        1.1173855854       22.0921135746
  H        18.1444130729        2.7319500218       22.5745519947
  C        17.0868065986        1.7636090248       24.1020323570
  S        11.4029501519        6.7503611764       11.8173259810
  C        11.0323405685        9.4644366208       11.5137789180
  H         5.4365903120       -2.7989977461       38.3455276786
  H         6.0815188474       -1.6703079947       37.1351580504
  H         5.5571456562       -0.9527460545       38.6599805302
  H         1.2006917851       -2.4439383448       18.2580401235
  H         2.8229536756       -2.6676280836       17.8169921513
  H         1.6881359726       -2.0347815490       16.5152986551
  H        16.3210080762        2.2812280331       24.6150731575
  H        18.0054277110        2.0330987524       24.6406597961
  H        17.0180673931        0.6860453075       24.2748458002
  C        11.6324650221        7.6520277573       10.2788848776
  N        11.5144394306        8.9889952171       10.3427231481
  O        10.7421043323       10.5778929678       11.7460906628
  S        12.6241650409        7.0591323531        8.8449340452
  C        11.5863661073        9.7937844558        9.0764983794
  H        11.7064657389       10.8344560472        9.3578778869
  H        12.3968995087        9.4607562595        8.4387188116
  C        10.3172661790        9.4150968165        8.3469367731
  H         9.5030943644        9.3189086851        9.0618821662
  H        10.0968644107       10.2285997283        7.7445270936
  H        10.3703276873        8.4456349039        7.8776734310
  H         4.0149691700        0.4700896369       12.3255112239
  C         3.5976082914        1.4943972872       12.3081123995
  H         4.4196585266        2.1413787755       12.6768059839
  C         2.9127479420        1.9896971472       10.9870331514
  C         2.5314404957        1.6613721740       13.3227317816
  C         4.0089691478        2.3935143885       10.0338610462
  H         2.1892311121        2.8615031078       11.1257734701
  H         2.3451343529        1.0947891219       10.5427414002
  H         3.1530434755        1.7550946394       14.1993048066
  H         1.9482756720        0.7588687640       13.4263502594
  H         1.8811071653        2.5133534610       13.1165784325
  C         4.7383965518        1.2356530816        9.4068756140
  H         3.6012855515        2.9982997854        9.2060812374
  H         4.5960143995        3.0734817845       10.6137908159
  C         5.5436747366        1.6807208959        8.1633917940
  H         3.9787773657        0.4437642975        9.0855492388
  H         5.4069427807        0.8062783654       10.1521369050
  C         6.7371159070        2.5792237399        8.5853394384
  H         4.9883641426        2.3179982752        7.4188569132
  H         5.8219797546        0.7609656513        7.6999583172
  C         8.1116629751        1.9795602026        9.0869152367
  H         7.0211658187        2.9888044973        7.6422567409
  H         6.4257269860        3.3975575319        9.1935751855
  C         9.2260970023        2.9903885958        9.0462545179
  H         8.3052868125        1.0600180176        8.6307262633
  H         7.9541845762        1.7738306634       10.1145087686
  C         8.8367610928        4.3337527238        9.7951387328
  C         9.5290246338        3.7519962386        7.8563804255
  C        10.6226700647        2.3751245228        9.5372497378
  C         8.8941181509        5.4590807485        9.0291996419
  C         8.3880016035        4.6548539201       11.0710538196
  C         9.4246850930        5.0809265668        7.8016202300
  C         9.9228368915        3.1781745193        6.6803245106
  H        10.3684830688        1.9552493022       10.5549569006
  H        10.8422101788        1.5005070638        8.9669520003
  C        11.7997842928        3.2670330544        9.8255254037
  S         8.3737689622        6.8988733330        9.7415404140
  C         8.0102881060        5.9741730465       11.1756185490
  H         8.2691635252        3.8324135750       11.7476772871
  C         9.5926319657        5.7355009735        6.5743053046
  H        10.1393923832        2.1190231446        6.6626318715
  C        10.1442451802        3.7916101826        5.5198355327
  H        11.5042677852        4.2599479879       10.2400429292
  H        12.4091411188        3.5611930074        9.0572108982
  C        12.7173149443        2.6558590678       10.8661448287
  C         7.5194040878        6.6576419324       12.4039737909
  C        10.0529622957        5.1242967472        5.3874295846
  H         9.3588100147        6.8026982526        6.5358901021
  C        10.5026843160        3.4279651102        4.2509859578
  H        13.7468351183        3.0424792518       10.8476581692
  H        12.6858463414        1.5924516547       10.6246123241
  C        12.3026726606        3.0727959690       12.2730892563
  C         7.5185785855        8.0683655513       12.6477533798
  C         7.1833614284        5.7609843122       13.5390137781
  C        10.4224779524        5.7908931052        4.1513641021
  C        10.6934458879        4.4904279329        3.4023044055
  S        10.8323420761        1.8965251598        3.6114230131
  H        12.8066560236        3.9524544126       12.5522773232
  H        11.2592336810        3.2888161864       12.2981133451
  C        12.8002640964        2.1853927453       13.4468288898
  N         7.7393794038        9.0669487317       11.7245647708
  C         7.3345151379        8.5564619805       13.9648326357
  C         6.8899648015        6.2627263834       14.8240456205
  H         7.1932629735        4.7423647290       13.4645770516
  C        11.6890528666        6.5976544459        4.2920238329
  C         9.3080992559        6.4953466623        3.5165627735
  C        11.0972086445        4.0531566605        2.1365056742
  C        11.1721568304        2.6283813892        2.0716593500
  H        13.8335411998        2.2886627731       13.6602887985
  H        12.6775715500        1.1246875372       13.0952609232
  C        12.0106773315        2.2015862103       14.7542736834
  S         7.6177963919       10.5401423846       12.5666086983
  N         7.5473213644        9.9409761377       14.0573949828
  C         6.9490999808        7.7325219513       15.0828928598
  H         6.7579647068        5.5761486331       15.5893205068
  H        11.4941752145        7.5149840830        4.8585893080
  H        11.9315729540        6.9634057387        3.2891582495
  C        12.8089006322        5.7668159164        4.8372598000
  H         8.9469039347        7.3373454468        4.0276934146
  H         9.6699082705        6.9728894119        2.6058560157
  C         8.0949582154        5.6366506208        3.2488751625
  H        11.2752869648        4.8016265495        1.4029831042
  C        11.6132075985        1.9303645437        0.8693164925
  H        11.9743859860        3.2406688739       15.1554285653
  H        11.0855653933        1.7252926196       14.5017747672
  C        12.6081831826        1.3030882499       15.7917071878
  C         6.6648109991        8.3498095171       16.3414643255
  H        12.7657450364        5.5719259432        5.9130222189
  H        12.9480476705        4.9060328552        4.2594216325
  C        14.1163010934        6.5424336219        4.7656900423
  H         7.6188755480        5.2432011190        4.1533131150
  H         8.3453210312        4.8015236312        2.6103390671
  C         7.0212589380        6.4496894604        2.4276540434
  C        11.6874583398        0.4897583362        0.7316117155
  C        11.7268514231        2.6955401749       -0.3555197414
  H        13.6848017468        1.3712043574       15.9489192339
  H        12.3668914043        0.2666926709       15.4634336783
  C        11.9949885463        1.5681713686       17.1292464045
  H         6.5877476606        9.4770996890       16.2551060067
  C         6.2788699058        7.9057458171       17.5772265214
  H        14.1235455102        7.4146708546        5.4151604203
  H        14.4086709361        7.0164818817        3.8530188221
  C        15.2498618777        5.5907562430        5.0247622529
  H         6.7934917902        7.4158480154        2.8665112300
  H         7.3480625974        6.8605982080        1.4462815309
  C         5.7871152712        5.6269273006        2.1598707165
  N        11.5373091581       -0.4213354347        1.7791113513
  C        11.8212298685       -0.1482708870       -0.4608797820
  C        12.0803829440        2.0097506228       -1.4991973869
  H        11.7987414340        3.7432857234       -0.3537096370
  H        11.9473646982        2.6184850293       17.3818653164
  H        12.5852131804        1.0618077583       17.9058828024
  H        10.9569316554        1.1746296535       17.2538813266
  S         6.2067328269        6.3021423099       18.1387805787
  C         6.0266842331        8.9524679045       18.5979312856
  H        14.9423735441        4.7480863232        5.6053005608
  H        15.6180830189        5.1680041711        4.1194288002
  C        16.4234211386        6.3225202227        5.7057428031
  H         5.4479639426        5.1023625683        3.0656916765
  H         6.0360093860        4.7774286340        1.4367001286
  C         4.5637031526        6.2729544868        1.5619604633
  S        11.4740047595       -1.9462661820        1.1738450475
  N        11.8588720204       -1.5315142240       -0.3820870966
  C        12.0170904589        0.5662106445       -1.6577955523
  H        12.1704984494        2.5762562905       -2.4176350734
  C         5.9734950896        6.9901799195       19.8207847262
  N         5.7388696370        8.3233748381       19.7680386560
  O         5.9811746611       10.2213176771       18.4013992826
  H        17.0913207666        6.7939757362        4.9911355715
  H        16.0876434901        7.2683690433        6.2407198656
  C        17.0935386856        5.3398907324        6.6926343473
  H         4.6675075832        6.8878155613        0.7109407328
  H         3.8633775747        5.4882241964        1.1583149889
  C         3.8778949535        7.1076047862        2.6708829054
  C        12.2857004025       -0.1931601194       -2.8205081893
  S         5.5923519076        6.1690039099       21.2809910866
  C         5.6672023075        9.0463444147       21.0544463386
  H        16.3958501657        5.1646064903        7.4783427070
  H        17.2419820135        4.3633698564        6.1678722631
  C        18.3828442477        5.8584838445        7.2297795322
  H         4.5217756382        7.2026731255        3.4720604442
  H         2.9473782164        6.6624230056        2.9270130284
  C         3.4008780691        8.4842955625        2.2241065852
  H        11.9572924015       -1.2144216801       -2.7223825449
  C        12.7863603626        0.0996404212       -4.0598736745
  H         4.8679605111        8.6194066784       21.6860043387
  H         5.1378767629        9.9618920583       20.7679305238
  C         7.0769782866        9.3722399237       21.5773364248
  H        18.8339592282        5.1933497086        8.0301753532
  H        18.2686262414        6.9424662982        7.5902967657
  C        19.4424012374        6.0719369427        6.1291124501
  H         2.4248135720        8.4749403965        1.7696460106
  H         3.3036119661        9.0163839386        3.1846271544
  C         4.3925791852        9.3770636161        1.4779812755
  S        13.4365359639        1.5536370111       -4.5976990848
  C        12.7563976587       -0.9344256691       -5.1221353753
  H         7.8849047050        9.2445065380       20.8350869974
  H         7.3629409835        8.7826688302       22.4882216260
  H         7.0877387467       10.4394732676       21.8799938515
  H        20.4642359620        6.1741659765        6.4810030439
  H        19.3829678212        5.1337035883        5.4999408220
  H        19.1929135946        6.7940097824        5.3789478524
  H         5.4689486739        9.2317888778        1.6997383774
  H         4.4248601034        9.2428340573        0.3596406187
  H         4.2368051128       10.4551927537        1.5990281350
  C        13.6524385078        0.8141658831       -6.1756727285
  N        13.3138931672       -0.4428439126       -6.2450292383
  O        12.3686448388       -2.0470801867       -4.9825826264
  S        14.4929031325        1.6265807685       -7.4997688526
  C        13.4298668350       -1.2423053349       -7.4437339624
  H        13.4890180401       -2.2703146729       -7.3028834309
  H        14.4194194892       -1.1655703675       -7.8877258092
  C        12.4244466447       -0.7970511875       -8.5383902661
  H        11.4287320058       -0.5335493566       -8.1636630527
  H        12.3637591240       -1.5342847468       -9.3412800202
  H        12.8160989426       -0.0072446579       -9.1101516898
