352
 i =   129000, time =    64500.000, E =       100.0950461861
  H        10.5396839055        7.2155547892       30.4661495754
  C        11.5354292892        6.9392549320       30.9827547514
  H        11.8803572971        8.0022402764       31.2676212124
  C        12.5433749571        6.2952945928       30.0164512043
  C        11.2800599666        6.0190607213       32.1975292927
  C        12.0220550139        5.0808888982       29.3422947611
  H        12.8882372237        7.0212050616       29.2754742051
  H        13.3704782854        6.0890065998       30.7038001103
  H        11.1659678363        4.9838168761       31.9147696502
  H        12.0135840881        6.0485199428       33.0063816563
  H        10.3442016603        6.2714827905       32.7350630150
  C        12.1098212206        5.1837750649       27.7849842282
  H        11.0339929733        4.7942455074       29.6407928210
  H        12.7516268480        4.3264630495       29.6551338869
  C        10.9988558655        6.0786146385       27.2128398388
  H        13.0355225575        5.6545006660       27.5263652231
  H        12.0797545152        4.1932525329       27.3840369492
  C         9.8545944469        5.2906086021       26.6476929775
  H        11.3114438189        6.5927644210       26.3652889945
  H        10.6453487593        6.7537846729       27.9764656744
  C         8.5879216158        6.1189143758       26.3140149285
  H        10.2304401132        4.9098665472       25.6776712247
  H         9.7636547716        4.4428592732       27.2881694184
  C         7.6081210331        5.3749221223       25.5139921233
  H         8.0751649964        6.5525363972       27.2332222248
  H         8.9110972738        6.9988325551       25.7817026684
  C         7.1921304171        4.0828989985       26.2996012267
  C         7.9647928057        4.5700188987       24.3229790327
  C         6.3248598691        6.1789450446       25.2354696746
  C         7.3481055235        2.9385025379       25.5132821402
  C         6.6196546925        3.7701163014       27.5590183250
  C         7.8182260406        3.2233595245       24.2357431374
  C         8.3500595175        5.1932400592       23.1309485782
  H         6.6618640347        6.8759012091       24.4762961057
  H         5.9035021434        6.6221291678       26.1001247865
  C         5.1373088166        5.4590390134       24.6205106605
  S         6.8521834018        1.4974439429       26.3145855977
  C         6.4079493524        2.3851092214       27.6737442734
  H         6.4371869326        4.5500475831       28.3051857653
  C         8.2852177808        2.5645748255       23.0998940763
  H         8.5657932735        6.2564330407       23.0686881358
  C         8.7264346428        4.5347846150       21.9822663669
  H         5.4741774719        5.2502116394       23.5775891734
  H         4.8703764374        4.5036071000       25.1368954922
  C         3.8423342561        6.3241005344       24.5102971657
  C         6.0038675694        1.5921474458       28.9422151941
  C         8.7168803671        3.1690018988       21.9585854260
  H         8.1990475087        1.5076107119       23.0410540925
  C         9.2659458047        4.9030594377       20.7535661939
  H         3.1357930849        6.0019667381       23.7762915956
  H         3.9397452056        7.3142593739       24.1957419753
  C         3.1410488752        6.2562930170       25.8519228129
  C         5.9991329194        0.1971407731       29.1130186867
  C         5.6312218899        2.3790571700       30.1547870967
  C         9.2148712385        2.4627681570       20.7360470670
  C         9.4779098513        3.7635081408       19.9819263343
  S         9.4466091355        6.3288111030       19.9397850525
  H         2.2238513506        6.7702972874       25.8059623046
  H         3.6819331462        6.9065167112       26.4678114908
  C         2.8070787513        4.9557935051       26.6199018866
  N         6.3457955431       -0.7559272834       28.1711014218
  C         5.6812055501       -0.3591017845       30.3333763799
  C         5.2172876387        1.8397065683       31.3514296472
  H         5.6002271774        3.4017098886       30.1267982511
  C         8.0411424963        1.6388351518       20.1499810824
  C        10.4025916059        1.5434525659       20.9361012908
  C         9.9228825970        4.1536270654       18.6662565059
  C         9.9266004540        5.4844167910       18.5376098663
  H         2.5484411283        4.2802637771       25.8395775709
  H         3.7849254693        4.5507828325       27.0333246751
  C         1.6710490544        5.2121289619       27.5951098305
  S         6.2618491829       -2.2272190330       28.7416107699
  N         5.7635684803       -1.7535265624       30.2546621710
  C         5.3486548696        0.3725207969       31.4704282491
  H         4.9796088922        2.4839703996       32.2190694422
  H         7.5460599214        0.9561767275       20.8760005442
  H         8.4612927322        0.9491520638       19.3534715695
  C         6.9577721480        2.4011168225       19.4671088811
  H        10.6559239202        0.9309611836       20.0891916546
  H        10.4090092884        0.9345355295       21.8333891173
  C        11.6932168842        2.3858241140       21.0473963013
  H        10.1122978748        3.3508441713       18.0572146507
  C        10.2458835896        6.2410611211       17.3140439995
  H         1.1297620632        4.2696717254       27.8461754511
  H         0.8048172054        5.8218421078       27.2732021463
  C         2.0836623457        5.7949897165       28.9365061159
  C         5.0712067678       -0.3473651329       32.7069164564
  H         7.3193477502        2.8752762033       18.5957987548
  H         6.6869357024        3.2577544950       20.0655213777
  C         5.7635374740        1.4931076285       19.1784366728
  H        11.5038279384        3.0929567957       21.8159703920
  H        11.9680486214        2.8728938697       20.2288606327
  C        12.9151721564        1.4823445722       21.2506609802
  C        10.1584260802        7.6287184751       17.1709265246
  C        10.6640864922        5.4413426971       16.1484902860
  H         2.3798283489        6.8053858457       28.9376038747
  H         1.1116177491        5.8526199438       29.5550362799
  C         3.0810696535        4.9397751931       29.6993443561
  H         5.2627636831       -1.4294981286       32.4963245145
  C         4.8352091108        0.0427512829       34.0148234526
  H         5.3310748810        1.1797189411       20.1314729882
  H         6.1061487197        0.5711655423       18.8076516539
  C         4.6355151957        2.1895169414       18.3956622011
  H        12.7175124105        0.9906493672       22.2350437721
  H        12.8996593808        0.6820907054       20.4525399321
  C        14.1880400058        2.3153197465       21.1775725744
  N         9.7893963811        8.6072165962       18.1531779725
  C        10.2580252345        8.2563195626       15.9347628943
  C        10.8219309027        6.0816320369       14.9168872969
  H        10.7730843959        4.3392758513       16.1645875548
  H         3.0958928187        3.8601456130       29.4203172087
  H         4.1021366771        5.3114791797       29.4890289869
  H         2.8922818710        4.9980347349       30.7639054395
  S         4.5493694053        1.6042043671       34.6789190810
  C         4.8409324333       -1.0470751286       34.9825401416
  H         4.7238664853        3.2486282951       18.5239524009
  H         4.8831360171        2.1215842250       17.3395526698
  C         3.3122918267        1.5009764366       18.7035026983
  H        14.2145241266        3.1226056860       21.8802984170
  H        14.3675808744        2.7850540194       20.1819054656
  C        15.4336599845        1.4898986809       21.5510345946
  S         9.7118306297       10.0740280811       17.4768121448
  N        10.0911221750        9.6334056741       15.9759940560
  C        10.5944799820        7.5403064860       14.7610278686
  H        10.9847237193        5.4598531927       14.0360244885
  C         4.1519015745        0.7989807787       36.2183271585
  N         4.3661820913       -0.5379389665       36.1612827544
  O         5.1200485005       -2.2148292090       34.6694597474
  H         2.5414435889        2.1732597317       18.4119563333
  H         3.1484752957        1.1265182227       19.7685761943
  C         3.1405292612        0.1884323462       17.9795246619
  H        15.2447735272        0.7276336233       22.3367356470
  H        15.7321644621        0.9342254198       20.6627491829
  C        16.6409939919        2.3425022151       21.7725664149
  C        10.9374596302        8.2426779922       13.5690773127
  S         3.6519457852        1.5548330252       37.7097037872
  C         4.2383791364       -1.4010929039       37.3516636571
  H         2.9261320239        0.2874816088       16.9317664562
  H         4.1124026004       -0.3249039224       17.9381847200
  C         2.0736589313       -0.6718769329       18.5992657720
  H        16.3417022141        3.3796563051       21.9402545555
  H        17.2901014364        2.4347891119       20.9024448689
  C        17.7051017303        1.8208304009       22.8445028219
  H        10.8372596826        9.3616706985       13.7025241760
  C        11.4389410324        7.9000481810       12.3054573832
  H         3.3640498711       -1.0961941375       37.9055817154
  H         3.9874026069       -2.3805063329       37.0501821316
  C         5.5091577292       -1.4038049023       38.1782815436
  H         1.1001588558       -0.2751146200       18.7773347014
  H         2.3608698601       -0.8408840527       19.6356773456
  C         1.9943966951       -2.0485256829       17.9304814547
  H        17.8819764514        0.7253262080       22.7376007747
  H        18.6490871822        2.4243609776       22.7847177169
  C        17.1784822600        1.9572747143       24.2600559939
  S        11.9363630334        6.3851203663       11.7750718633
  C        11.6227935898        9.0000329598       11.2704003424
  H         6.2750328958       -0.7154155737       37.7643435715
  H         5.2872847927       -1.1181126104       39.1816422527
  H         5.9667472291       -2.3943972709       38.1986619206
  H         1.6634833283       -1.9115609245       16.8717010327
  H         1.3051721439       -2.7025579522       18.4648790613
  H         2.9840165100       -2.4690968648       17.7328986293
  H        17.0345171455        2.9648218746       24.5880792639
  H        17.8095547498        1.4657540630       24.9771972114
  H        16.2259616452        1.4077747181       24.4465900504
  C        12.3373140524        7.1178960830       10.2615749877
  N        12.2768880778        8.4637252665       10.2408451128
  O        11.2946836405       10.1850496721       11.4938770674
  S        13.2019698066        6.1754210280        9.0518739203
  C        12.5979857417        9.2691430367        9.1008023617
  H        12.7390319989       10.3638574685        9.5123303406
  H        13.5149592165        8.9700018578        8.7164214807
  C        11.6275606474        9.2548936516        7.9494184341
  H        12.0803300006        8.7009414772        7.1280971473
  H        10.6138139755        8.9240356222        8.2158147161
  H        11.5074830367       10.2214696527        7.5533446396
  H         3.2462190587        0.9619218805       12.9387627142
  C         3.8458125313        1.8498618806       13.0602119361
  H         4.8633487394        1.4826113620       12.8053594756
  C         3.4758230841        2.9353305865       12.0140945130
  C         3.6292783847        2.3102368749       14.4596485908
  C         4.1964636545        2.9506056215       10.6754602511
  H         3.7966684859        3.7757022473       12.6319990680
  H         2.4064027458        3.0754491414       11.9163215025
  H         3.4916230186        1.5410217351       15.1652472428
  H         2.8838777768        3.0859825081       14.6370570763
  H         4.5763393397        2.7964806624       14.8736028431
  C         4.4020244453        1.6584874220        9.9392287665
  H         3.8329616251        3.6805226844       10.0261809183
  H         5.2251033396        3.2584812556       10.8347569376
  C         4.9820111358        1.8030594392        8.5161398415
  H         3.4519688740        1.2668803784        9.8891930162
  H         5.0607358680        1.0126291832       10.4500315016
  C         6.2893207641        2.6167165011        8.5305650073
  H         4.3499909621        2.2881493194        7.7516868010
  H         5.0961022820        0.7859773699        8.1600237317
  C         7.5630483551        1.9306673917        9.0149786968
  H         6.5627073352        2.7679186765        7.5361391600
  H         6.1356874324        3.6375075791        8.9562769364
  C         8.9211783000        2.6245206452        9.1053437634
  H         7.7652977707        1.0304241946        8.3806417543
  H         7.3537226583        1.5080926042        9.9644648123
  C         8.7367242515        3.9586904728        9.8306144785
  C         9.4698711192        3.3143469325        7.9348158021
  C        10.0087409379        1.8798410522        9.7789216679
  C         9.0542811023        5.0801446088        9.0947694289
  C         8.2176217558        4.3568402072       11.0992721201
  C         9.5464674138        4.6609766665        7.8809705817
  C         9.8506117857        2.6569390123        6.7781930264
  H         9.6835413944        1.3533586099       10.6687324475
  H        10.2800595309        1.1064096833        9.0294013341
  C        11.3737593322        2.6836957896       10.0803553527
  S         8.7566442641        6.5726842855        9.9204351910
  C         8.1883430721        5.7315355323       11.2764636719
  H         7.9249616421        3.6888350269       11.8303519506
  C        10.0258982329        5.2915927203        6.7635203387
  H         9.8581399799        1.6151105660        6.7787242623
  C        10.3152287976        3.2332709638        5.6893055658
  H        11.2007706742        3.6931658398       10.3516994274
  H        11.9025059113        2.8526833512        9.1344161504
  C        12.3343169014        2.0377631380       11.1378831288
  C         7.6938883950        6.4392895893       12.5073267203
  C        10.3269919714        4.6176616158        5.5737685321
  H        10.2394450322        6.3246183084        6.7272458697
  C        10.7711778765        2.8397973895        4.4465888473
  H        13.3224831712        2.5418280097       10.9882531717
  H        12.5036451987        1.0496449672       10.7777092183
  C        11.8654760680        2.4451612447       12.5596136659
  C         7.7532204647        7.8309063201       12.7366700378
  C         7.2241474546        5.6201628869       13.6157029350
  C        10.8221281707        5.2681922731        4.2752364202
  C        11.1010826179        3.9071798736        3.6292938122
  S        10.8957667929        1.3602804067        3.6444642855
  H        11.9755931575        3.5236536534       12.7104867486
  H        10.7458405154        2.2101168826       12.6690876099
  C        12.4688545369        1.5877168503       13.5956470782
  N         8.3743082478        8.7731962619       11.9072644233
  C         7.4939475103        8.3671326346       13.9979093595
  C         6.9287037844        6.1410302855       14.8727230499
  H         7.0284073907        4.5495200942       13.4754975015
  C        12.0987738391        6.0827029518        4.3952224898
  C         9.7733732469        6.0762201031        3.5086303470
  C        11.3950724607        3.5293174125        2.3265974001
  C        11.3914076552        2.1989510153        2.2046908763
  H        13.4855956651        1.8376751505       13.7301396570
  H        12.3856686071        0.5547128557       13.3420040911
  C        11.7246387600        1.8028028733       14.9180778900
  S         7.9998278882       10.2320434356       12.5369073980
  N         7.5698817246        9.7683701280       14.0533900313
  C         7.1083871990        7.5637258130       15.1283421919
  H         6.5005781548        5.4977342488       15.6012497519
  H        11.9546760313        7.0428606757        4.8890117038
  H        12.4466626998        6.3356435833        3.4182023939
  C        13.2157653324        5.3652221781        5.1278727843
  H         9.5750461275        7.1160341423        3.8977195646
  H        10.2667339331        6.3848930945        2.5905523758
  C         8.4632709393        5.4256251803        3.0999915372
  H        11.7341706571        4.2540083888        1.5638270314
  C        11.6631165792        1.4714616997        0.8869620565
  H        11.5448585579        2.8053497754       15.1515967480
  H        10.7633641310        1.2994363667       14.9739092270
  C        12.4650180975        1.3405852213       16.0600834021
  C         6.7307826024        8.2729314612       16.3320941695
  H        12.9146010386        5.4214052775        6.1361546119
  H        13.2285999264        4.3233181412        4.8149358515
  C        14.5658827119        5.9802352556        5.1276742310
  H         8.1087560897        4.8634422952        4.0065260294
  H         8.4668498529        4.6709882836        2.3306778092
  C         7.5054921142        6.5189902852        2.7744681018
  C        11.8259665908        0.0679722674        0.6910409311
  C        11.9736154427        2.2988846889       -0.2762168503
  H        13.0034891736        0.4758379560       15.7447602916
  H        11.7568212558        0.8600533119       16.7502774371
  C        13.3288796660        2.3491733008       16.8096579417
  H         7.0785839450        9.2868153021       16.3448792974
  C         6.5446229409        7.7293160402       17.5846939122
  H        14.5031169671        6.7733261755        5.8794873775
  H        14.6316777732        6.4736250527        4.2158427284
  C        15.7428860407        5.1872639567        5.5404534047
  H         7.2213217084        6.9168108131        3.7471730903
  H         8.0333541351        7.3687066533        2.3600465689
  C         6.2509830089        6.0418165143        1.9622148253
  N        11.4528458115       -0.8528691063        1.6433816312
  C        12.2092202815       -0.5130695254       -0.4991529962
  C        12.2938692729        1.7274219264       -1.4845323762
  H        11.8512028568        3.3845211633       -0.2256849258
  H        12.7152571454        3.2375504372       17.0917648410
  H        14.1297260359        2.7007946258       16.1353506036
  H        13.7761537022        1.9868111503       17.6830197184
  S         6.1817893614        6.0783219387       17.9669032926
  C         6.3748545356        8.7469420651       18.6711725584
  H        15.3763113293        4.3081938131        6.1028873232
  H        16.3876464434        4.8559596988        4.7291396110
  C        16.5813373720        6.0157790896        6.5491491106
  H         5.5033487063        5.7471371525        2.6923957749
  H         6.5591982505        5.2379494945        1.2592007410
  C         5.6232943450        7.1402818268        1.1440788935
  S        11.6989481044       -2.3632405473        1.0839071555
  N        12.2079074844       -1.9045634956       -0.3694109384
  C        12.4735053242        0.2635247876       -1.7192356789
  H        12.4527335426        2.4439281191       -2.3007464272
  C         5.9782790806        6.7063893834       19.6104642663
  N         6.0134413095        8.0436538418       19.7522610504
  O         6.7510569635        9.9049709606       18.6273266519
  H        17.1207082222        6.8150506383        6.0749869690
  H        16.0140439729        6.4841063086        7.3587837462
  C        17.6483689093        5.1518670301        7.1232756765
  H         6.4097736417        7.8291373137        1.0059345295
  H         5.3097575295        6.6316287569        0.1922791925
  C         4.4456070057        7.8313464781        1.7922725209
  C        12.8313201347       -0.5199043104       -2.8816526791
  S         5.5976334740        5.7977099449       21.0054438398
  C         5.8689170450        8.8559601067       20.9941939748
  H        17.1359629579        4.5638267732        7.9522710255
  H        17.9437889506        4.4608031589        6.4090796166
  C        18.8395245703        5.9352771165        7.6505913921
  H         4.7031275390        8.2053817457        2.7581685664
  H         3.5909557240        7.1550885839        1.9169761560
  C         3.8578713944        9.0336784861        0.9618359559
  H        12.6605930845       -1.5926182353       -2.8662336449
  C        13.3157551545       -0.1990577973       -4.1376916169
  H         5.1588131361        8.3661880312       21.6943301366
  H         5.3395660737        9.8481148866       20.7355141378
  C         7.1794322726        9.0715437693       21.6373070055
  H        19.1739826458        5.5304447651        8.6335090080
  H        18.4651113272        6.9302935451        7.8372011942
  C        19.9789263285        6.0112822823        6.6447058495
  H         3.3529876374        8.6147224860        0.0873748581
  H         3.1907620742        9.5218990154        1.6819350510
  C         4.8332269410       10.1300840028        0.6068520140
  S        13.8904241129        1.3864787152       -4.6377777082
  C        13.3851837462       -1.2151131803       -5.1954561688
  H         7.8082931892        9.7007028120       21.0048144209
  H         7.7758980776        8.1213651970       21.6529229079
  H         7.0438907853        9.5192427759       22.6647437827
  H        20.7118956456        6.8469294003        6.8631980306
  H        20.6399490284        5.1438117230        6.6777875519
  H        19.6765599109        6.0138532630        5.5721643725
  H         5.3700536401       10.4096186835        1.4271469962
  H         5.5885645879        9.8400974733       -0.1285132690
  H         4.3029897034       11.0131363929        0.1594366087
  C        14.1088982632        0.6612511210       -6.2340187517
  N        13.8566201760       -0.6579928145       -6.3553449431
  O        13.0473192650       -2.4083529100       -5.0610147184
  S        14.6846084211        1.5206882973       -7.6176168604
  C        14.1165186897       -1.4398303760       -7.5460061733
  H        14.5610877067       -2.3558555606       -7.2436746183
  H        14.7668317896       -0.8969294198       -8.1588372299
  C        12.8708279255       -1.6836453545       -8.3819903338
  H        11.9933739394       -1.3161279029       -7.9567200129
  H        12.8525670022       -2.6939455489       -8.5406738951
  H        13.0068935099       -1.1607595595       -9.3283005157
