352
 i =    48100, time =    24050.000, E =        97.5470998309
  H        10.7044965687        4.4440716843       32.6936307302
  C        10.4828884827        5.4925896002       32.6304468168
  H         9.7256014086        5.7810881314       33.2975836596
  C         9.8932939870        5.8765925688       31.2837102076
  C        11.7910338653        6.1537660171       32.9951623464
  C        10.7147072398        5.4256714069       30.1136849757
  H         8.9305945931        5.4515988826       31.3535967033
  H         9.6888116691        6.9413620609       31.2358716277
  H        12.6004480187        5.8451130737       32.3414630220
  H        11.7606624253        7.2186820715       33.0423208721
  H        12.0506091939        5.7249742009       33.9621396706
  C         9.9119257793        5.5577932452       28.7989126051
  H        10.9662968037        4.3595562209       30.1427040201
  H        11.6086287476        5.9420681656       30.1305727227
  C        10.6455103272        5.8964189974       27.4907595293
  H         9.2906090560        4.7247905026       28.6533609607
  H         9.2717928261        6.3757524656       29.0248906986
  C         9.9196758743        5.3107310053       26.2844398515
  H        11.6688405129        5.4842801446       27.4036250583
  H        10.8255150391        6.9516169865       27.3925226197
  C         8.5944713984        6.1453117901       26.1362247156
  H        10.5700488190        5.2226244877       25.3647115498
  H         9.5607162336        4.2373238587       26.4704471095
  C         7.4176782487        5.4187886130       25.3365106022
  H         8.2272977436        6.3227927827       27.0659006411
  H         8.8230528796        7.0652493878       25.5591397455
  C         7.0939512607        4.0475802386       25.9805202975
  C         7.7809542697        4.7107365259       24.0490644850
  C         6.1544828294        6.3820323786       25.1697766649
  C         7.3200518391        2.9516385887       25.1943699211
  C         6.5905425171        3.6239121608       27.2756686445
  C         7.6761750398        3.3939634970       23.9110756849
  C         8.2595332465        5.3397094423       22.8474956464
  H         6.4881245360        7.0646656447       24.3699866331
  H         5.9355049280        7.0391880808       26.0224534951
  C         4.9040997763        5.6983916298       24.6882891727
  S         7.0900731843        1.4870798175       25.9581896569
  C         6.4290804268        2.2523420468       27.3797828032
  H         6.3442262892        4.4215580183       28.0574811024
  C         8.0213130140        2.7977808213       22.7491131793
  H         8.4789084856        6.3799791299       23.0100361828
  C         8.5575336411        4.6743483680       21.7063529433
  H         5.1913363959        5.3475364002       23.6995497465
  H         4.7844948108        4.7553976184       25.2513628575
  C         3.5599569771        6.4938483468       24.7315236205
  C         5.9627851666        1.5043492264       28.5212024580
  C         8.4046813835        3.3619144000       21.5609743020
  H         7.8562639968        1.6905363028       22.7438661946
  C         9.0169538440        5.0633220833       20.4479660150
  H         2.8487267677        6.1050192743       23.9936596020
  H         3.7554745914        7.5617889602       24.3968794098
  C         2.9575988635        6.5224564846       26.0801133924
  C         6.0143677645        0.1265551951       28.7658861391
  C         5.4870361778        2.3207857056       29.7160781508
  C         8.7443423331        2.6731445241       20.2711875534
  C         9.2036444028        3.9554381176       19.5944779465
  S         9.2697402121        6.5336876655       19.6772066171
  H         2.1379143107        7.1340887090       26.0418052532
  H         3.5771700482        6.9120899424       26.8208061730
  C         2.4315523119        5.2091177578       26.6110461616
  N         6.3349566809       -0.7663349903       27.7800287717
  C         5.7176015609       -0.4656664899       30.0241195449
  C         5.1623301625        1.7349097953       30.8816174493
  H         5.4367043493        3.4092026830       29.5979497011
  C         7.5590922138        2.0764524520       19.5271138918
  C         9.9016890608        1.6808820755       20.4671332991
  C         9.7580865987        4.2886238471       18.3429474758
  C         9.7515524310        5.6683783439       18.2535469488
  H         1.9643097233        4.5623511236       25.8662804026
  H         3.3420201784        4.5057583225       26.8230648852
  C         1.6198432366        5.1856074119       27.8853104577
  S         6.2994481997       -2.2423745818       28.4163530152
  N         5.8394785599       -1.8299996850       29.9764782040
  C         5.3595339387        0.2864197079       31.1749610862
  H         4.9052246555        2.3587135038       31.6842189731
  H         7.3545185246        1.1054540760       19.8635551948
  H         7.7504948901        1.9146795796       18.4763155041
  C         6.1651520047        2.8557178381       19.5622276481
  H        10.1181020362        1.3712412618       19.4394575109
  H         9.6989787813        0.6874255244       20.8989844733
  C        11.1717453870        2.4485682166       20.9175981817
  H         9.9825368348        3.5125998035       17.6442475612
  C         9.9762910884        6.3922748077       16.9839452950
  H         1.1169202593        4.2801085467       28.1797323628
  H         0.8464846289        5.9581541347       27.7677820067
  C         2.4391360392        5.5793338347       29.0802278213
  C         5.2587631281       -0.3844237860       32.4146017944
  H         6.2865648550        3.9180087042       19.8506756395
  H         5.5286102882        2.3943584852       20.2463505187
  C         5.5518739298        2.4828348643       18.2359320727
  H        10.9163477308        3.1469846460       21.6422884235
  H        11.4679729306        3.0107499445       20.0050518916
  C        12.3818621443        1.6470446217       21.3048766309
  C        10.0819562343        7.8157115646       16.7856678739
  C        10.2268465984        5.6135106356       15.7020736265
  H         3.1716107453        4.7511152811       29.2104942287
  H         3.0121105664        6.4091354314       28.8277441152
  C         1.5819052830        5.8961334633       30.3997612180
  H         5.2849144602       -1.4490681877       32.3959616800
  C         4.9224127653        0.1112917873       33.6972118604
  H         5.7657681093        1.4445902081       18.1207545236
  H         5.9831833327        3.0422363298       17.4858650441
  C         4.0070909940        2.8254537454       18.0908920299
  H        12.1442106108        1.0984575024       22.2489921019
  H        12.5888992374        0.8461121711       20.5682881212
  C        13.5771640284        2.5686409529       21.4122300461
  N         9.9090191131        8.8210863332       17.7322119653
  C        10.3062573532        8.4179215931       15.5651543834
  C        10.7426357068        6.1958397240       14.5675904316
  H        10.0868793609        4.5131429872       15.7294464756
  H         1.1331373379        4.9933697854       30.8033527401
  H         2.2146777248        6.2485559572       31.1261986447
  H         0.9823317373        6.7610920123       30.2118923148
  S         4.5343960239        1.7576155333       34.0846526532
  C         4.7935681040       -0.8776640365       34.7527819916
  H         3.7523416033        3.7263977003       18.6816932504
  H         3.7085252005        3.0751997575       17.0506116500
  C         3.1139435940        1.7524111571       18.6196261122
  H        13.2501416248        3.3694561803       22.0908186767
  H        13.9332014511        3.0671366049       20.5158019805
  C        14.8117580294        1.9827477256       22.0976894324
  S        10.1115246345       10.3195400702       17.1077198941
  N        10.3770363768        9.8164594594       15.5776145969
  C        10.7363576076        7.6785092735       14.4699525759
  H        10.9540313322        5.5571326611       13.7414188621
  C         4.2674147468        1.0877890750       35.7154753289
  N         4.4590624475       -0.2359548851       35.8738352984
  O         4.8418773353       -2.0975918375       34.5052572030
  H         2.0910769443        2.1011785395       18.6172782735
  H         3.2827297272        1.5677526945       19.7258453858
  C         3.1941241232        0.4535377802       17.8560699174
  H        14.5446225055        1.6793148813       23.1106579765
  H        15.0250070468        0.9683850930       21.6064497694
  C        15.9549346983        2.8946644893       22.0774936020
  C        11.0211033320        8.3976118021       13.2313333047
  S         3.8118171896        1.8996986229       37.1845312130
  C         4.2665494356       -0.9665249675       37.0778525396
  H         2.8704384822        0.5983592337       16.8764549215
  H         4.1524859297        0.1272001921       17.7708229257
  C         2.3676804039       -0.7635245779       18.5068248425
  H        15.6907505474        3.8222180364       22.5926200222
  H        16.2836858242        3.1191341733       21.0785483527
  C        17.2621256258        2.3399567099       22.7201449564
  H        10.7794428171        9.4568573948       13.2274854046
  C        11.4480076602        8.0394280630       11.9892946027
  H         3.3577703476       -0.6318094724       37.6176743802
  H         3.9421558970       -1.9611474712       36.8066701668
  C         5.4846834791       -0.9985073929       38.0868484210
  H         1.4201058067       -0.3215303765       18.8205691035
  H         2.7285372816       -1.0767944198       19.4765035631
  C         2.1085890726       -1.9972104971       17.6004924479
  H        17.3163421924        1.3050921811       22.3154508924
  H        18.0855103171        2.9853872698       22.4725802531
  C        17.1538773849        2.3071027023       24.2816591897
  S        12.2131035523        6.5073818349       11.5594292046
  C        11.3159893137        8.9565019718       10.8527898320
  H         5.9868522076       -1.9207551615       38.2169179595
  H         6.2074032756       -0.2129271212       37.8917780224
  H         5.0287405301       -0.8732690888       39.0592409590
  H         1.2053545903       -2.4744337832       17.9800053587
  H         2.9609349377       -2.7402821717       17.5219156124
  H         1.9917823040       -1.6427927219       16.5498386268
  H        16.6372958441        3.1324467527       24.7556418055
  H        18.2254177282        2.0883191402       24.7306935851
  H        16.5272854116        1.4691384787       24.5997318092
  C        12.3658640185        7.1330601504        9.9345866697
  N        12.0332026431        8.4468593960        9.8052822833
  O        11.0230065867       10.1354794514       10.9933974691
  S        13.1490335093        6.3285819779        8.6000247471
  C        12.2589017961        9.2411389615        8.5922571877
  H        12.3372325968       10.3124818998        8.7020196155
  H        13.2865742015        9.0613789211        8.2366201303
  C        11.0872393425        8.9305153633        7.6539429514
  H        10.9464924597        9.7810586486        6.9465329727
  H        11.3343441006        8.0971417329        6.9954903474
  H        10.1792237832        8.6844921026        8.2205016435
  H         3.1848149776        4.2479681933       11.7609592784
  C         2.6575870562        3.3324756511       12.1655984222
  H         1.5751353807        3.4084415703       11.9415954410
  C         3.2610929974        2.0512520719       11.4826719668
  C         2.8892654736        3.3018485613       13.6508914156
  C         3.7697360054        2.2924040154       10.1600918172
  H         2.4748903743        1.3110956832       11.3541535529
  H         4.0560800836        1.5131597873       12.0493728520
  H         2.3506532427        2.4393824454       14.0912260805
  H         2.5019651624        4.2089133078       14.1405911432
  H         3.8814817827        3.0334461882       13.9964767357
  C         4.5388978057        1.1260458279        9.5810325967
  H         2.9186928920        2.5550239999        9.4214164380
  H         4.3742118914        3.1794302585       10.2423250942
  C         5.2483401704        1.3903347243        8.3422817848
  H         3.8052487987        0.3801534193        9.3553331572
  H         5.2300626375        0.6762373123       10.2897081509
  C         6.4811405400        2.4393736273        8.5378156654
  H         4.6256636663        1.8852229526        7.6599587270
  H         5.6635622326        0.4920676263        7.8528177080
  C         7.7004714210        1.7241380133        9.1025775483
  H         6.8168633603        2.6990416241        7.5820749959
  H         6.0758394694        3.2223407835        9.1514718712
  C         8.9094679272        2.7111993453        9.2484236628
  H         7.9004903898        0.9518124385        8.3219832884
  H         7.4217907527        1.2024109066       10.0848472111
  C         8.5138848111        4.1292852219        9.8341143443
  C         9.4113676355        3.3882259064        7.9821971014
  C        10.1006268853        2.0419637435       10.0895903802
  C         8.9078662896        5.1749692659        9.0170070362
  C         7.9997128636        4.5277347367       11.1275526985
  C         9.3917126711        4.7069925308        7.8320216828
  C         9.9708093498        2.6747161601        6.9258605013
  H         9.7452511268        1.6267934235       10.9967730957
  H        10.4507502440        1.1437115386        9.5078064851
  C        11.3681639380        2.9507178894       10.2408646084
  S         8.5767100027        6.7021738113        9.7191057050
  C         7.9717777191        5.8987966345       11.2075393719
  H         7.7117438847        3.7716266961       11.8032195282
  C         9.9322811070        5.2623427313        6.7275411004
  H         9.9881904237        1.5791416762        6.9728973264
  C        10.3739232917        3.2811038333        5.7249067172
  H        10.9230819558        3.8999324329       10.5479462186
  H        11.9214320545        3.1306369485        9.3201898927
  C        12.3111237576        2.3764172510       11.2752092200
  C         7.5681163729        6.6012080151       12.4902740516
  C        10.3540836643        4.5936710570        5.5854024566
  H         9.9882762373        6.3161830560        6.6631918698
  C        10.7590062371        2.7693472433        4.4933764952
  H        13.1363932532        3.1065399880       11.2483089697
  H        12.6044978267        1.3860063132       10.9388776508
  C        11.7410228917        2.3537632894       12.6994536025
  C         7.6572578602        8.0071222473       12.7649946689
  C         6.9876776898        5.8062758348       13.6193273367
  C        10.7069356000        5.1763851864        4.2664805914
  C        10.8349678558        3.8264660327        3.5816081599
  S        11.1562832691        1.2429377993        3.7905381519
  H        11.1820688305        3.2288833308       12.9891388812
  H        10.9570213421        1.6601223033       12.7082617797
  C        12.8073233092        2.0061428919       13.7501152067
  N         7.9646704153        8.9708355682       11.8627078996
  C         7.4493155388        8.5370565268       14.0089169434
  C         6.6449137812        6.3522315517       14.8531958065
  H         6.6295412514        4.8661181982       13.4537255983
  C        12.0848204641        5.8788774761        4.2498075926
  C         9.6480105857        6.1814120168        3.7721734093
  C        11.1948675004        3.3490745373        2.2985186873
  C        11.4944347270        2.0496893407        2.2371636655
  H        13.8376787460        2.1761611673       13.3646958124
  H        12.8032963471        0.9104801415       13.8221679705
  C        12.5743580381        2.6378017835       15.0836205329
  S         8.1813087650       10.3751274957       12.6524198963
  N         7.6347204104        9.9119423874       14.0997045770
  C         6.9796569721        7.7961077192       15.1320545415
  H         6.1588383414        5.6552303609       15.5228730350
  H        12.0910774917        6.7778213556        4.8051549635
  H        12.3611405495        6.1758898296        3.1901280474
  C        13.2198317851        5.1276116302        4.7892409013
  H         9.3934194483        6.8594238346        4.5263935662
  H        10.2391592573        6.6375431330        2.9757749685
  C         8.5719835335        5.4290026374        3.0434912737
  H        11.5357592715        4.0624034728        1.5697624603
  C        11.9075273947        1.3603253541        0.9494897725
  H        12.5271200150        3.7760722161       14.9378650360
  H        11.5530811682        2.3845071455       15.3983723651
  C        13.6012189555        2.3675135877       16.1984445943
  C         6.7649837143        8.4294681200       16.3694345330
  H        13.0091539810        4.5349045092        5.6885696517
  H        13.5475553688        4.4040954896        3.9716415503
  C        14.3415321659        6.0669511284        5.0958361224
  H         8.0942231098        4.6885316987        3.6725066351
  H         8.9762154338        4.7971259654        2.2564147585
  C         7.4889409249        6.4106736776        2.4820175635
  C        11.9518000598       -0.0226604310        0.7793463028
  C        12.0178087852        2.1290493525       -0.3230605059
  H        14.4236455803        3.1738605201       16.2274283093
  H        14.0281920253        1.3748047926       16.0631625781
  C        12.9274053653        2.3645205582       17.5769685765
  H         6.9437510620        9.5001862725       16.4168899774
  C         6.4384080939        8.0456913404       17.6172876264
  H        14.1587328310        6.6348770520        5.9711155373
  H        14.4862480680        6.8058630890        4.3298081789
  C        15.6445555675        5.4240425879        5.4111473646
  H         7.1677042427        7.0429231994        3.3293415990
  H         8.0116201512        7.0854506133        1.8184122040
  C         6.3308293165        5.8524795818        1.6955244669
  N        11.8435013653       -0.9159476057        1.8307064727
  C        12.2220855036       -0.6248977800       -0.4316238035
  C        12.4020726736        1.5405627286       -1.5208979159
  H        11.9194322559        3.2010933197       -0.2893808994
  H        13.4087360157        1.9634644491       18.4077439433
  H        11.9565347849        2.0877429062       17.4461100480
  H        12.9079521021        3.4779953179       17.7913682379
  S         6.0699159323        6.3604334829       18.0715448825
  C         6.3466053423        9.0922124255       18.6255841382
  H        15.3101434573        4.5914598583        6.0870280623
  H        16.1619981672        5.1476244481        4.5163082384
  C        16.6985883959        6.2090206933        6.2233134234
  H         5.8463688357        5.1995846155        2.4125324878
  H         6.5975224552        5.1709714938        0.9008247336
  C         5.3091322737        6.9680870827        1.2630708353
  S        11.8295923795       -2.3671288651        1.1550162090
  N        12.1352153944       -2.0305374689       -0.4280761797
  C        12.3607328985        0.0722979829       -1.6798866927
  H        12.6454569144        2.1670992599       -2.3285898677
  C         5.9383852624        7.1304257076       19.6246880506
  N         5.9711718525        8.4673306984       19.7022390200
  O         6.5393604575       10.2844519166       18.5261131790
  H        16.8247091300        7.2281467039        5.8465349132
  H        16.3853645593        6.3531519124        7.2146800839
  C        18.0265408323        5.5177527850        6.2872843691
  H         5.8632656610        7.6942423241        0.6007014122
  H         4.5558651774        6.4928841811        0.6489623863
  C         4.6513257671        7.6893793931        2.4190647356
  C        12.6960507207       -0.6771645955       -2.7956479981
  S         5.2868912884        6.4205976128       21.0723609620
  C         6.0394472983        9.2528572078       20.9788778017
  H        17.7435313666        4.5002334033        6.5476461748
  H        18.5511405259        5.6335041461        5.2679043467
  C        18.9293558379        5.9719258330        7.3702540442
  H         5.4949600442        8.2850658317        2.8814868557
  H         4.2993016963        6.8351165589        3.0393558466
  C         3.5764050986        8.6985257190        2.0795779469
  H        12.4348071946       -1.7178547562       -2.6718080542
  C        13.2180400799       -0.2853345817       -4.0213377048
  H         5.4291906002        8.9813896060       21.7798068259
  H         5.5435056584       10.1823744444       20.8931086460
  C         7.4951323683        9.2751898640       21.5171996962
  H        18.6744557355        5.6352588138        8.3524098771
  H        18.8801158000        7.0262311308        7.3309179348
  C        20.3247354478        5.5867988885        6.9329818245
  H         2.5105158601        8.3932192013        1.9079825300
  H         3.5775670469        9.2557898556        3.0283114349
  C         4.0220428853        9.6096469077        0.8714162363
  S        13.8366521325        1.2915790788       -4.4456663023
  C        13.4203416000       -1.3194863552       -5.0265587685
  H         7.9049603726       10.1470635002       20.9649799937
  H         7.9964477515        8.3088922901       21.3273616586
  H         7.5388626904        9.4404852783       22.6375249941
  H        20.6054390110        4.5403187599        6.6965517352
  H        20.6709264731        6.2460668837        6.0937580023
  H        21.0359966433        5.8957961924        7.7777461468
  H         4.9336727523       10.2068076514        0.9669978673
  H         3.9949118366        9.0370368175        0.0031373629
  H         3.2161455496       10.3125376165        0.6594897860
  C        14.3171154032        0.5733791997       -5.9882146936
  N        14.0307487192       -0.7819093639       -6.0715429403
  O        12.9788310303       -2.4634817922       -4.9580808905
  S        15.0363631649        1.3852853384       -7.3450653887
  C        14.1063590211       -1.5997167611       -7.3223864630
  H        14.1423658607       -2.6897287895       -7.0742777640
  H        15.0801324246       -1.4867223154       -7.7616936572
  C        12.8274701919       -1.1943462187       -8.1000247756
  H        12.5489001546       -2.0193378490       -8.7632882904
  H        12.9938583528       -0.2688210132       -8.7110962568
  H        12.0256404751       -1.0043750310       -7.4344313677
