352
 i =   111100, time =    55550.000, E =        98.2140032832
  H        10.4245894595        4.8150722217       31.7939222807
  C        10.9871042415        5.7617272258       31.9296735361
  H        10.1987647435        6.3776975359       32.3713993123
  C        11.5586998132        6.2474701239       30.5761414022
  C        12.0773014449        5.4525964142       32.9307821579
  C        10.4466687307        6.4448860423       29.5703302967
  H        12.1224060273        7.2076115800       30.6792472772
  H        12.2470495569        5.5205134520       30.2042375267
  H        11.8801462390        6.1787067607       33.7943446569
  H        11.9865323503        4.4952667746       33.3165924278
  H        13.0363889869        5.6159854290       32.4444870821
  C        10.1748524331        5.2481739988       28.6794191558
  H        10.7507184401        7.2731655162       28.9435726380
  H         9.5489717008        6.8839094167       30.0839408894
  C        10.6134639415        5.4214162588       27.2201864538
  H        10.6288566839        4.3052675935       29.0314342687
  H         9.1231296169        5.0584675156       28.7303721590
  C         9.5598899142        5.0198577652       26.2185429597
  H        11.4761724676        4.8079829381       27.1545638926
  H        10.8358219844        6.4908738723       27.0270616145
  C         8.3173298581        5.8865014924       26.0831573127
  H        10.0318838346        4.9859821498       25.2272409076
  H         9.2775243823        4.0254382251       26.4279207098
  C         7.2024098714        5.2075196976       25.3147868032
  H         7.8400468474        6.1571458677       27.0655267093
  H         8.4892037351        6.8027750610       25.5388827984
  C         6.7292102024        3.8518257871       25.9522434283
  C         7.7118064826        4.4245421871       24.1449857043
  C         6.0299872758        6.1842792882       24.9516427408
  C         6.9991664871        2.7247541651       25.2497862867
  C         6.2647280437        3.5152762185       27.2204076091
  C         7.6516742148        3.0588145008       24.0904213732
  C         8.3084107882        5.0307183863       23.0800148045
  H         6.4080898648        6.7927643216       24.1012331850
  H         5.7836748623        6.9003478116       25.6988834052
  C         4.7098680239        5.5739999992       24.4418626078
  S         6.4441217818        1.2514565470       26.0240860609
  C         6.0808664727        2.1542268752       27.3896640852
  H         6.0433264987        4.2924559137       28.0011556994
  C         8.1537351601        2.4225610995       22.9516705535
  H         8.4384048766        6.0996477201       23.2276089334
  C         8.6633959161        4.4303057112       21.8947086424
  H         4.9074342781        5.4103298336       23.4320408305
  H         4.4918960839        4.5384548864       24.8423729252
  C         3.5459141768        6.5449876872       24.5576007359
  C         5.7780354705        1.4764369869       28.6717994356
  C         8.5140679205        3.0807193875       21.7540961288
  H         7.9330509740        1.4151640182       22.9890176736
  C         8.9821599302        4.9920047246       20.7017095415
  H         2.8300423059        6.2987565252       23.7731113828
  H         3.8345478711        7.6309097220       24.4023091048
  C         2.8191240937        6.4713113460       25.9023885104
  C         5.8084387636        0.1097630060       28.9539763445
  C         5.4020796719        2.3847377374       29.8204048921
  C         8.8807179702        2.5431997522       20.3358793324
  C         8.9397975083        3.9988734288       19.7627734826
  S         9.1679275587        6.5929556287       20.0458481394
  H         2.0626142354        7.2450826577       25.8503927827
  H         3.4415111627        6.8384781232       26.7134409483
  C         2.3256444395        5.1003190579       26.3521127415
  N         6.0979385782       -0.9078620681       28.0032585870
  C         5.4701810962       -0.3892066962       30.1537954909
  C         5.1561035325        1.8673481338       31.0944244942
  H         5.3882494127        3.4357761093       29.6362065156
  C         7.6639125389        1.7250638720       19.7485964210
  C        10.2073277810        1.7160910261       20.3700529022
  C         9.2041180199        4.5018724779       18.5117138163
  C         9.3050278920        5.8618279964       18.5027689778
  H         1.8563394685        4.6910616443       25.4956110372
  H         3.0563774686        4.3867621028       26.6371508687
  C         1.2837862878        5.0561126391       27.4026345352
  S         5.9221849081       -2.4005339952       28.6928926396
  N         5.6305198063       -1.8070419429       30.1667962142
  C         5.1842939706        0.3706359570       31.3476009766
  H         4.8877632186        2.6468001309       31.7955285775
  H         7.2716259442        1.2856980172       20.7197756645
  H         8.0122455397        0.9215902595       19.1663292273
  C         6.4507319975        2.4499818158       19.2183939950
  H        10.2947951043        1.5177028811       19.2779944125
  H        10.1432219881        0.7880558528       20.8664360178
  C        11.3388811424        2.4465306260       20.9250263616
  H         9.3234190309        3.7692021846       17.7386397416
  C         9.8566497990        6.6436605884       17.3634243399
  H         1.2442655250        3.9917971682       27.6949194415
  H         0.3390491765        5.3547482182       27.0213595594
  C         1.8248734824        5.7707255681       28.6059672340
  C         4.9275704214       -0.3244435643       32.5623811725
  H         6.5711099430        2.9978776938       18.2848520584
  H         6.2266561735        3.2791660502       19.9478339526
  C         5.3187086711        1.5356104736       18.8068913230
  H        11.2546159020        2.6015832144       22.0029843712
  H        11.3426117277        3.4081892534       20.4165232505
  C        12.7001721523        1.7732203903       20.7820363951
  C         9.9349819086        8.0461279296       17.2776843021
  C        10.1059726991        5.9815788328       16.0745303826
  H         1.7633850922        6.8659309505       28.4058425689
  H         1.1298231621        5.6074203134       29.3713965488
  C         3.1623514314        5.4311147977       29.1385109432
  H         4.7725346721       -1.3929815271       32.5487284609
  C         4.7334885267        0.1587983136       33.8289446465
  H         4.9965184167        1.1970841234       19.7954650603
  H         5.7753044615        0.7624505446       18.1288625565
  C         4.1430221911        2.2582615755       18.1241306355
  H        12.6848622920        0.8952998456       21.3571502959
  H        12.8234162114        1.4327573166       19.8016740136
  C        13.8173417653        2.6235270033       21.2393051899
  N         9.6662528180        8.8995719010       18.3403480117
  C        10.1779219516        8.8061900550       16.0773700581
  C        10.4656398371        6.6938573017       14.8997755413
  H         9.9199766897        4.9583257635       15.9103547361
  H         3.3465393881        6.1265852344       30.0409177483
  H         3.2798297360        4.4018964704       29.6143118493
  H         3.8423571039        5.4476568302       28.3244568756
  S         4.4316835027        1.7678045870       34.2908724569
  C         4.5958692633       -0.7956004515       35.0014101108
  H         3.8698876405        3.1581705459       18.6813271904
  H         4.4412782528        2.6233526793       17.1276533852
  C         2.8136735855        1.4268750861       18.0525379896
  H        13.4971716202        3.1773590463       22.1351509275
  H        14.1889928261        3.3174183256       20.5260274912
  C        15.0554833242        1.7931343817       21.6053169272
  S         9.7538862384       10.4342864378       17.7722046544
  N        10.2889041835       10.1565336230       16.3096079027
  C        10.6029612598        8.1727290623       14.8520775832
  H        10.6830257380        6.1616038524       13.9921322988
  C         4.2182023666        1.2207014038       35.9365601965
  N         4.2860343993       -0.1124936524       36.1249596539
  O         4.7261795880       -1.9993970049       34.8810119078
  H         1.9342763388        1.9526207408       17.5779162290
  H         2.5487508958        1.1911037164       19.0725477082
  C         3.1111548989        0.1896749450       17.1491235992
  H        14.8760538809        1.3042604572       22.5604841707
  H        15.2132157350        0.9543761684       20.8246532486
  C        16.3526317442        2.5875359971       21.6746046359
  C        10.9432734817        8.9004164864       13.6856909415
  S         3.9131575448        2.2840889458       37.3127095173
  C         4.2591132904       -0.7818317802       37.4856223957
  H         3.4569657695        0.5362724687       16.2060742762
  H         3.9447775595       -0.3788574349       17.4451858913
  C         1.8978598208       -0.7592026444       17.1193335415
  H        16.2715636168        3.5398922810       22.2441988279
  H        16.3577674543        2.9323116826       20.6442929386
  C        17.4558407094        1.7050041306       22.2111631215
  H        10.7200081269        9.9319134289       13.7843293615
  C        11.3543846959        8.5743888113       12.3922857847
  H         3.6153420923       -0.2853037813       38.1501504185
  H         3.7531862356       -1.7534829483       37.3372839838
  C         5.6774547712       -0.9836757245       38.0480054233
  H         1.4728315941       -0.6883176091       16.1910623796
  H         1.1162813520       -0.4782252660       17.8086269782
  C         2.3830637456       -2.2168758637       17.3685800708
  H        17.4715288596        0.7600786015       21.6685421203
  H        18.3890624171        2.1634752225       21.9239666694
  C        17.4760732680        1.5218673842       23.7032770324
  S        11.9182426619        7.0083065168       11.9000791587
  C        11.3807802269        9.5767402869       11.3520873703
  H         5.5989509797       -1.3221533342       39.0939883607
  H         6.3028482583       -1.6516490813       37.4985234017
  H         6.1089041162        0.0677309174       38.0542214193
  H         1.4768228718       -2.8288989341       17.4646865452
  H         3.0083546192       -2.2088618332       18.2536886044
  H         3.0465210337       -2.6157506627       16.6280907236
  H        18.4917317575        1.5173157739       24.0883631298
  H        16.9344660276        0.6907977908       24.0763118809
  H        17.0019241319        2.4282500702       24.1611051335
  C        12.3887662411        7.7910267372       10.4092773050
  N        12.0755282592        9.1015027150       10.3330193323
  O        11.1911382702       10.7299219078       11.6717485887
  S        13.4013331796        7.1131347890        9.0984972934
  C        12.1806624246        9.9813019734        9.1511058931
  H        12.1584596256       10.9998561747        9.4791337673
  H        13.1339891014        9.7147572540        8.6797118758
  C        10.9751958547        9.7592442103        8.2340633270
  H         9.9764844517        9.8373827727        8.7266718763
  H        11.0344603706       10.4546230201        7.4662391459
  H        11.0966057293        8.8173521046        7.7870819581
  H         2.3543605268        4.0913141343       12.1422077485
  C         2.7357598696        3.0252729894       12.1240213950
  H         1.8997013400        2.4684914737       11.7099088968
  C         4.0018500554        2.9393861639       11.3492679364
  C         2.9276750844        2.6547647259       13.5961851002
  C         3.8678014664        2.7074802391        9.7860357792
  H         4.7595582018        2.2905806509       11.7378610496
  H         4.4849151632        3.9128294169       11.4603834418
  H         2.8781263704        3.5644941260       14.1551920908
  H         3.8855070780        2.2033799326       13.7088522071
  H         2.2461871399        1.9151051144       14.0311447953
  C         4.8538335974        1.6152822463        9.2635473280
  H         2.8486232268        2.4248143705        9.6471927580
  H         3.9419181675        3.6099146961        9.1988166434
  C         5.7105478421        2.1282056969        8.1066799158
  H         4.2695930100        0.6763905003        9.0311952531
  H         5.5242484705        1.3841934753       10.0464180877
  C         6.8118067761        3.0562156356        8.5837024239
  H         5.0796486739        2.6182540136        7.3574801349
  H         6.2137523378        1.3768010702        7.5061733500
  C         7.9791516010        2.3913486186        9.2368117162
  H         7.1546696959        3.7510441352        7.7862575036
  H         6.2750864383        3.7268932027        9.2133268157
  C         9.2071797373        3.3415969126        9.4031535653
  H         8.1198954629        1.4623211150        8.6772039782
  H         7.6562046264        2.0925238203       10.2767513368
  C         8.8088934123        4.6608733326       10.0294421799
  C         9.6704430294        3.9942724902        8.1530781961
  C        10.3215194871        2.6452765835       10.1876423783
  C         8.9726671038        5.7606830679        9.1733954205
  C         8.2724011975        5.1296437207       11.2510123474
  C         9.4958577845        5.3616371916        7.9842220166
  C        10.3080662374        3.2957240606        7.0875463401
  H         9.7779121755        2.4088071096       11.0740876311
  H        10.6202451157        1.6363380221        9.7496334024
  C        11.5703027436        3.5784079435       10.5420013943
  S         8.6200733717        7.2518586477        9.9470155109
  C         8.2579640612        6.4659137677       11.4020570803
  H         8.0942070665        4.4178925185       12.0380034926
  C        10.0016078558        5.9303663221        6.8407200355
  H        10.4576632055        2.2423853999        7.1491786240
  C        10.7273758783        3.8567155964        5.9100400941
  H        11.2493257627        4.4966407944       10.9824427018
  H        12.1909649993        3.7804922407        9.6525292382
  C        12.4660291887        2.9419988468       11.5407639797
  C         7.7776045420        7.1713780079       12.6230763818
  C        10.6249341590        5.1837763059        5.7395972628
  H        10.0660224248        6.9970833143        6.7812771453
  C        11.1627212503        3.4234368660        4.6518977266
  H        13.4424834223        3.3641681363       11.4468270767
  H        12.6966752239        1.8401026580       11.4600666943
  C        12.0621512043        3.2146058368       13.0273233180
  C         7.7728739264        8.5479989239       12.8404498544
  C         7.2463006244        6.4137929921       13.7986017601
  C        11.1515937710        5.7890348325        4.4542030071
  C        11.3790113297        4.4793121176        3.7846249866
  S        11.2841883594        1.8973158561        3.9752507927
  H        12.1742643978        4.2703875390       13.2671057538
  H        11.0260180558        2.9622893040       12.9857990063
  C        12.5215297241        2.2704358543       14.0823994052
  N         8.1901214338        9.5185691013       11.9137878148
  C         7.4835434897        9.1612354503       14.0564879552
  C         6.7850134846        7.0634200955       14.9186853029
  H         7.0053948290        5.3858362971       13.8323046012
  C        12.4575728476        6.5208926032        4.7831433029
  C        10.1222736922        6.5887606335        3.6234716361
  C        11.7867177828        4.0303196639        2.4998910651
  C        11.6883756457        2.6845567550        2.4443433849
  H        13.4079842840        2.6881004755       14.3435133368
  H        12.8943969997        1.3011901288       13.7778050189
  C        11.6453204804        2.1775119183       15.3516949169
  S         8.1801433798       10.9666407883       12.6478095027
  N         7.6194388449       10.4982145021       14.1017445867
  C         7.0209730967        8.4869149688       15.1379079861
  H         6.3449798268        6.5490047501       15.6765717184
  H        12.2748852929        7.3416429713        5.4935704076
  H        12.8037242073        6.9969341806        3.8362460656
  C        13.5492060839        5.6573237165        5.4266380078
  H         9.6609048714        7.4428224192        4.2584037329
  H        10.6643988810        7.0670425282        2.7823905279
  C         8.9897680398        5.7277980184        3.1291059454
  H        12.0958083757        4.6655340536        1.7578645663
  C        12.0046353135        1.8901504981        1.1998169312
  H        11.1287367450        3.1197881411       15.5588133954
  H        10.8958795886        1.4441164426       15.3312001739
  C        12.5426239130        1.8124639719       16.5731374470
  C         6.7587374096        9.1511926449       16.3668842625
  H        13.3340343982        5.6220116169        6.4451833073
  H        13.6658747596        4.6059740137        5.1661353278
  C        14.9328149980        6.1969709257        5.3841748161
  H         8.5079754433        5.2173072939        3.9656050180
  H         9.3818676618        5.0764290520        2.3840276646
  C         7.8978703492        6.4537118930        2.5078573852
  C        11.9309025790        0.4363923802        1.1047321055
  C        12.0724935105        2.5136716609       -0.1480954117
  H        13.3253282041        1.0429819182       16.4501170946
  H        11.7901776122        1.5505420077       17.2790682775
  C        13.1043054129        3.0678384677       17.2542473295
  H         6.8399097936       10.2507883908       16.4353536370
  C         6.3870856543        8.7144498262       17.6317573740
  H        14.9235754766        7.2459584396        5.2524822265
  H        15.4538310775        5.8211282761        4.5562913102
  C        15.7442284591        5.6862594584        6.5690157602
  H         7.5529146920        7.2455534694        3.1524890914
  H         8.2948793708        6.9332888222        1.6086557859
  C         6.6276408289        5.6310165614        2.1599444099
  N        11.6799196128       -0.4700425298        2.1308987425
  C        12.2213008939       -0.2478387776       -0.0514311490
  C        12.3540190428        1.8018656410       -1.2817957839
  H        12.0538202884        3.5931123599       -0.1714684635
  H        12.3376052467        3.7026697680       17.6755162715
  H        13.6062729244        3.5464612865       16.4185943636
  H        13.8586628957        2.8581121878       18.0520216687
  S         6.1125576463        7.0311379647       18.0992494204
  C         6.3888323707        9.6311966060       18.7052191251
  H        15.6975571312        6.3596810425        7.3514872841
  H        15.2824484692        4.7974667591        6.8826852531
  C        17.1596455068        5.5308067807        6.1272344696
  H         6.4218670287        4.7773768097        2.7568619848
  H         6.6443226319        5.2725684407        1.0834627860
  C         5.3394850440        6.5082116464        2.3964281512
  S        11.5813281310       -2.0040200447        1.5203072576
  N        11.9435122266       -1.6035904145        0.0013311470
  C        12.5151466210        0.3345121643       -1.2647897312
  H        12.5985851943        2.3301714652       -2.2024406254
  C         6.1829592931        7.6391463297       19.7699308059
  N         6.2758778652        8.9778942366       19.8576911870
  O         6.4921568109       10.8573824048       18.6213028038
  H        17.2129923989        4.8129150669        5.3256973779
  H        17.4996819624        6.4340486590        5.6960234042
  C        18.0667118158        5.2280556892        7.3196221046
  H         4.4264408941        5.9712975319        2.5560961731
  H         5.4618021513        7.0406548992        3.3439118053
  C         5.0817662107        7.4891727413        1.2856798449
  C        12.6375005120       -0.4630756480       -2.4319009341
  S         5.8276974771        6.6952466024       21.2438517720
  C         6.2320505953        9.7467779940       21.1077962930
  H        17.4135558242        5.0476176127        8.1832767159
  H        18.4358307732        4.2455169953        7.0366736620
  C        19.1680648423        6.2192203596        7.5144205608
  H         4.8358845491        6.8323441475        0.4573279751
  H         6.0460088860        7.9608045063        1.0283680937
  C         3.8835523414        8.3610418379        1.5641103926
  H        12.3300121507       -1.4590456252       -2.3026435806
  C        13.1093267845       -0.1837262991       -3.7229730916
  H         5.7733865573        9.1527800884       21.7924092409
  H         5.5013896336       10.5850196239       20.9211368991
  C         7.6314191579       10.0750522352       21.5942970927
  H        19.5523231855        6.2124989400        8.5957801127
  H        18.7600648557        7.2326036587        7.4558754471
  C        20.3665693430        5.9033338828        6.5376598056
  H         3.7870886754        8.9591864019        0.6287779175
  H         2.9535789182        7.8046354654        1.7251747760
  C         4.1316195214        9.4157502105        2.5985195956
  S        13.8840007451        1.2535834793       -4.2508893609
  C        13.2096585880       -1.3023131517       -4.6241436070
  H         7.9903148211        9.2234881599       22.1713301772
  H         7.6168302180       10.9217632493       22.2739215829
  H         8.4315532544       10.2160961059       20.8946202191
  H        19.9974309718        6.0680017631        5.5910757162
  H        21.2727277513        6.5331535134        6.7299623761
  H        20.7771703500        4.8570820417        6.6065875416
  H         3.9672981745        8.7659528418        3.4880100099
  H         5.1361411705        9.8690488459        2.5922569223
  H         3.3811541208       10.1763723084        2.6958116007
  C        14.1623353789        0.3786578731       -5.7070050780
  N        13.8260126761       -0.9273610913       -5.7093476184
  O        12.8779584199       -2.4299457284       -4.2761637309
  S        15.2241038334        0.9170451613       -7.0198680828
  C        13.8202060007       -1.8615823996       -6.8935860642
  H        14.0190921617       -2.8614481705       -6.6310707790
  H        14.5855300810       -1.4837364970       -7.6377132834
  C        12.4283712793       -1.6768201719       -7.6822826806
  H        11.9761359071       -2.5937887983       -7.8873424392
  H        12.5971050424       -1.2378298368       -8.6345394621
  H        11.8099996361       -1.0088355491       -7.1575380992
