352
 i =    66500, time =    33250.000, E =       100.3411695807
  H        11.6315185729        7.6242663479       31.9071871329
  C        11.5677956425        6.5501922933       31.9806589458
  H        12.5878699983        6.2661661156       31.8309301507
  C        10.6778782448        5.9672067032       30.8355435456
  C        11.1549230357        6.0925848134       33.3728816916
  C        11.3215391221        6.0561099914       29.4646310955
  H        10.4736317825        4.9680727668       30.9554888620
  H         9.7273016723        6.4217795355       30.8845590642
  H        10.3168198569        6.6937273013       33.7602563914
  H        10.8924555322        5.0095297465       33.3760454231
  H        12.0382875986        6.2441313649       34.0250218828
  C        10.4152090471        5.2618687288       28.4989589056
  H        12.2628775664        5.5207352643       29.3603626537
  H        11.5299173828        7.0221089798       29.1503613027
  C        10.9614774245        5.5800408436       27.0334099357
  H        10.4338595059        4.2124401575       28.7790997410
  H         9.4273623330        5.4681963547       28.6827156156
  C        10.0089691829        5.0584496921       26.0256240309
  H        11.9920687691        5.3405733630       26.8043094333
  H        11.0087590646        6.6564628478       26.8292523788
  C         8.8251367371        6.0634358929       25.8402359537
  H        10.5824422408        5.0019258981       25.1217432801
  H         9.7370899323        4.0929914431       26.3991044790
  C         7.5329118590        5.4408584335       25.2267954971
  H         8.4935698038        6.4615431927       26.8179016295
  H         9.0292755619        6.9671395000       25.2808735550
  C         7.2238769759        4.0965029969       25.9370677031
  C         7.9028065951        4.7198804914       23.9848261507
  C         6.2677414189        6.4683510762       25.1167164978
  C         7.4804036618        2.9882741466       25.1932367400
  C         6.5976074673        3.8335217338       27.2129748101
  C         7.8302477438        3.3806375550       23.8733554815
  C         8.2887750645        5.3320472008       22.7797827278
  H         6.3538625744        7.2760749440       24.3804083973
  H         6.1643708840        6.8822471659       26.0371317219
  C         5.0574940600        5.6397428050       24.5497402993
  S         7.1102662655        1.5743973200       25.9219975769
  C         6.4266354143        2.4878634220       27.3954977658
  H         6.3731649090        4.6416305532       27.9171864826
  C         8.1109356853        2.7715593888       22.7117925785
  H         8.2256983992        6.4393844494       22.8408091224
  C         8.5529491964        4.6811302605       21.5831990617
  H         5.2918930581        5.3823573116       23.4721236575
  H         4.9307429492        4.7438531846       25.1151285798
  C         3.7126890743        6.4439064208       24.5728689783
  C         5.9980451331        1.7997742119       28.6731919996
  C         8.5824198215        3.3439064301       21.5169333647
  H         8.0520609022        1.6929701497       22.6677723119
  C         8.8848998445        4.9720257605       20.2748075676
  H         2.9913252678        5.8074639028       24.0341118568
  H         3.7390902519        7.4596260915       24.1597597926
  C         3.2106361998        6.6194877800       26.0522513930
  C         6.0869614771        0.4188647283       28.9266489724
  C         5.6787740435        2.6193928329       29.8589037320
  C         8.9160738978        2.6063828640       20.2133785208
  C         9.1276715027        3.8999789881       19.4847974774
  S         9.2334974126        6.3506575845       19.4166389893
  H         2.3065758910        7.1275278774       25.9696709796
  H         3.8975966099        7.2603197419       26.5850483207
  C         2.9725256336        5.2655482715       26.7949193782
  N         6.4862723132       -0.5091902692       27.9752190021
  C         5.6814746061       -0.1357224865       30.1951501925
  C         5.4509940302        2.0640958320       31.1374795880
  H         5.6616937088        3.7039140450       29.7206815222
  C         7.8081023643        1.7190874797       19.6253498051
  C        10.2726643851        1.8526733733       20.3121152426
  C         9.5108154890        4.1996078393       18.1653657448
  C         9.5741733794        5.5392304380       17.9589945128
  H         2.5879751393        4.5965658279       26.0096060452
  H         3.9374029778        4.9810270068       27.1039702087
  C         1.9878885046        5.3647076466       27.9238578808
  S         6.1261002342       -1.9164311730       28.6243224473
  N         5.5805808354       -1.5022395038       30.0718726036
  C         5.4484032255        0.6089928920       31.3815853211
  H         5.1129005245        2.7842344051       31.9249170863
  H         7.6811322900        0.8830356755       20.1564159730
  H         8.1718473283        1.3158696461       18.6956185754
  C         6.4971671494        2.4050082887       19.2617094564
  H        10.5137124735        1.3228834819       19.3616620352
  H        10.1083755359        1.0024536849       20.9828663100
  C        11.4360486585        2.6153226208       20.8407205494
  H         9.7330528649        3.4611593196       17.4540885497
  C         9.9114627516        6.3008579209       16.7242467953
  H         1.6495168435        4.3085245511       28.1224303673
  H         1.0466580173        5.8376330148       27.5702370463
  C         2.6132335028        5.8114013238       29.2155197277
  C         5.1175035663       -0.1147955127       32.5867417672
  H         6.5713179484        3.3433977828       18.7053191920
  H         6.0948410841        2.7386481093       20.2238173579
  C         5.5859028140        1.3709979092       18.6919292699
  H        11.2245201357        2.9928641178       21.8003938936
  H        11.7848568439        3.5383432601       20.2798509925
  C        12.7163811920        1.7392961204       20.8136566737
  C        10.0269780724        7.6795453954       16.5966504221
  C        10.0705188480        5.5063518555       15.4614666429
  H         3.4676785900        5.0857366329       29.3081127097
  H         3.1218731212        6.7801210423       29.1690141555
  C         1.6487287580        5.6401408629       30.3909845632
  H         5.1110729538       -1.2052497925       32.4245435682
  C         4.7842568856        0.2823629958       33.8601366730
  H         5.2340971550        0.5927766609       19.3890822932
  H         6.0817568809        0.8306881474       17.9111873741
  C         4.3036953774        1.9699368094       18.1648985895
  H        12.5963813693        0.8511303740       21.4155617938
  H        12.7963462063        1.3859340550       19.7824207935
  C        14.0248581828        2.3467260950       21.1357485482
  N         9.8072000039        8.5846849068       17.6273099539
  C        10.2933880118        8.2800351538       15.3950652144
  C        10.4201800431        6.1181737889       14.2606403470
  H        10.0351580085        4.4402194451       15.4710090788
  H         0.6829009944        5.2477538586       30.0196889380
  H         2.1362273099        4.9781980317       31.2656949182
  H         1.4757524484        6.6509025558       30.8272655207
  S         4.5045551782        1.9132978576       34.3947273444
  C         4.6067744422       -0.6843315112       34.9209486835
  H         3.9332144210        2.6841638846       18.9109489978
  H         4.5726943649        2.5085938394       17.3350752970
  C         3.0760869508        1.0653923361       17.9769783450
  H        14.2157938146        3.3710861375       20.7729209843
  H        14.8370030446        1.7448467316       20.7137815243
  C        14.1917150448        2.5401593364       22.6300745638
  S         9.9945814201       10.0531221833       17.0496489389
  N        10.2388941822        9.7043698833       15.4749231390
  C        10.6334235102        7.6074542092       14.2406830178
  H        10.4769012048        5.4466640491       13.4168106137
  C         4.2350811092        1.2495009895       36.0162705533
  N         4.2593846070       -0.1071586466       36.0879717211
  O         4.6602028049       -1.9109306793       34.7117798975
  H         2.3289878707        1.6412703825       17.4106574999
  H         2.5334968690        0.8732420733       18.9348637326
  C         3.2085974524       -0.2299887621       17.2269005894
  H        13.1973530994        2.7270134644       22.9896512413
  H        14.4183003409        1.6335491878       23.1511393707
  C        15.0424824066        3.6937687652       22.8960265566
  C        10.9077503769        8.3458842227       13.0118848981
  S         3.8733601128        2.2165097412       37.4683301111
  C         3.9994581204       -0.7855058025       37.3977549370
  H         2.7657979023       -0.0595783565       16.2223324254
  H         4.2863105852       -0.4331013865       17.2569236621
  C         2.6571248651       -1.4436005370       18.0450565022
  H        15.0312916565        4.0103803691       23.9726448194
  H        14.6724470695        4.5342825069       22.3384871484
  C        16.4681932682        3.5277025095       22.3189678253
  H        10.5612758177        9.3954709700       13.1056295822
  C        11.5315348486        8.0977640620       11.8634972004
  H         3.1057004744       -0.4127879391       37.9402565099
  H         3.8168776073       -1.7958967609       37.1810085287
  C         5.2521532629       -0.6858104196       38.2499255110
  H         3.0456047562       -1.3675109493       19.0504726952
  H         3.1188349415       -2.4175977814       17.7051054216
  C         1.1448651634       -1.4179190149       18.2105415284
  H        16.5028947131        3.4236903470       21.2221444617
  H        17.0085905652        4.4972475210       22.5225885932
  C        17.2663081053        2.3802587281       22.8451717470
  S        12.2218814015        6.5786716926       11.4887041545
  C        11.5549219115        9.1333649932       10.8436577011
  H         5.1082602879       -0.0084385791       39.1141670119
  H         5.5020462458       -1.6868581737       38.6731442195
  H         6.0912521343       -0.3160492386       37.6820047494
  H         0.8668827859       -1.9182204915       19.1443318762
  H         0.4825068418       -1.8226469693       17.4263189927
  H         0.7407111192       -0.3863315692       18.2664171295
  H        16.9002443349        1.3787030888       22.4591434983
  H        17.1058715991        2.2572975581       23.9406476404
  H        18.3327742042        2.5483215311       22.6655832098
  C        12.4794597394        7.3553990194        9.9186043025
  N        12.1545085250        8.6359541005        9.8142268598
  O        11.0819392851       10.2718398575       11.0766010270
  S        13.0969151413        6.5577711797        8.4324077974
  C        12.0766637603        9.4173043230        8.5597451151
  H        12.0050735781       10.4305122080        8.8220316361
  H        13.0807176212        9.3783137130        8.0588525344
  C        10.9258195816        9.1062573163        7.7280866080
  H        10.8890351433        9.5718428618        6.7559082896
  H        10.8404879810        8.0797006326        7.5671874415
  H        10.0354799680        9.4120131464        8.3619014373
  H         4.5846637031        2.1010492942       13.0163897046
  C         3.8847345847        2.8910114973       12.8552236408
  H         4.3819220046        3.8128463532       13.1408580620
  C         3.2015202355        2.9778870962       11.4459236089
  C         2.8969017944        2.5661404140       13.9647091709
  C         4.1109647183        3.0924105220       10.2462811362
  H         2.6666276659        3.8794644474       11.5185726659
  H         2.4251491131        2.3259237208       11.2283975055
  H         2.0374854059        2.3418915477       13.3558995728
  H         2.7336197577        3.3194381743       14.7112620283
  H         3.2067926656        1.6347231571       14.5135227985
  C         4.7193260311        1.7256888284        9.8481286336
  H         3.4716354511        3.5078827678        9.4358004725
  H         4.7717908628        3.9856511135       10.5049779201
  C         5.2406794493        1.7150836367        8.4370765488
  H         4.0508600670        0.8560375359        9.9987538348
  H         5.4720249503        1.6703126965       10.6201286885
  C         6.4175785122        2.6385391846        8.1970208148
  H         4.4624530094        1.7231732090        7.6765433132
  H         5.6467142697        0.7193931789        8.1658351902
  C         7.7446365081        1.8963487249        8.5390771682
  H         6.4128455177        2.8994590882        7.1923122734
  H         6.2432563812        3.4533842701        8.8241622148
  C         8.9565935443        2.8859666801        8.8003104126
  H         8.0188456221        1.2679675592        7.6921763030
  H         7.6969779398        1.2498596746        9.4015685493
  C         8.6135524949        4.2947970905        9.4541760114
  C         9.4279932433        3.6377029869        7.5828365271
  C        10.1104019753        2.2420401916        9.6612922547
  C         8.8758123166        5.4528297158        8.6818517381
  C         8.0489777175        4.7342922947       10.7057240077
  C         9.3348033744        4.9731377756        7.4522893013
  C         9.9141127252        2.9834683858        6.4213249338
  H         9.6992887378        1.9584622606       10.5522241505
  H        10.3197970464        1.3003178236        9.1229696122
  C        11.3287135579        3.1052976939        9.9124272569
  S         8.3858994870        6.9068018900        9.4117689738
  C         7.8762268902        6.0975891695       10.7778579744
  H         7.6909684355        4.0109366315       11.4023828770
  C         9.7280776718        5.5671224466        6.2579796673
  H         9.9725104995        1.9377443331        6.4372431423
  C        10.2913780502        3.6056419708        5.2411395534
  H        11.1181234740        4.0601022777       10.3622577582
  H        11.8605617033        3.3709677743        8.9714086300
  C        12.1405373661        2.4124564799       11.0032971006
  C         7.4974222449        6.8029976438       12.0746321131
  C        10.2097010973        4.9579774448        5.1172487509
  H         9.6532927123        6.6282633510        6.1947135238
  C        10.7060120240        3.2281221145        3.9806722634
  H        13.1891502810        2.7036797065       10.8037365364
  H        12.2858748609        1.3880554235       10.8251331831
  C        11.7068067647        2.7692023640       12.4129747481
  C         7.5485032010        8.1597896383       12.3592933558
  C         7.1235883487        5.9198632575       13.2274531377
  C        10.6351647370        5.6811274088        3.8914465720
  C        10.9385803859        4.3663851207        3.2060309210
  S        11.0317515240        1.6976182605        3.2279397351
  H        11.9041476182        3.8446858512       12.5361624313
  H        10.5764388636        2.7028984960       12.6050290424
  C        12.4832220227        1.8184768292       13.2710650735
  N         8.0098566805        9.1036896101       11.4418897908
  C         7.3090853379        8.6533087141       13.6385608937
  C         6.9619523501        6.3676093535       14.4957124459
  H         7.0136375200        4.8286565818       13.1476007818
  C        11.8835829174        6.6344704136        3.9711955084
  C         9.4101090471        6.5130666380        3.3356860368
  C        11.2695394474        4.0049715074        1.8908285252
  C        11.3608504111        2.6254018273        1.7525872380
  H        13.5605057738        1.9172713214       13.0282207289
  H        12.2541148662        0.8500179640       12.9099489069
  C        12.0724257645        1.6777344228       14.7323575520
  S         8.0061765380       10.5288816116       12.1690096841
  N         7.5011512780       10.0738892622       13.6580289746
  C         7.1008502127        7.8251166577       14.7477079057
  H         6.8359566922        5.5909163631       15.2756793809
  H        11.5798710969        7.3386757584        4.7493101952
  H        11.8922323136        7.0945580465        2.9623318327
  C        13.1872132333        5.9198074836        4.2893394174
  H         8.8776125222        7.1507320733        4.0758687113
  H         9.7809604267        7.1868913955        2.5630796901
  C         8.3758726864        5.6876544649        2.6475783768
  H        11.3923788571        4.8197202958        1.1648932311
  C        11.6422194794        1.8957465634        0.4877969172
  H        10.9688252759        1.6176881274       14.9542884885
  H        12.3259506784        0.6626905632       15.0920456322
  C        12.6482624419        2.8126127872       15.6339176787
  C         6.9979277417        8.3827748822       16.0526867959
  H        13.0158134552        5.0842928238        4.8491898206
  H        13.4616632534        5.5354711997        3.2817120844
  C        14.4221058378        6.6475125090        4.8587265924
  H         7.8795692886        5.1065521929        3.3659114837
  H         8.8084232719        5.0401263578        1.9048503040
  C         7.2754592467        6.4779281588        1.8983779477
  C        11.8141885606        0.5066384834        0.3681799680
  C        11.9344427841        2.7138196898       -0.7147818463
  H        11.9883853813        3.6230621348       15.5991998383
  H        13.6511341628        3.1630268081       15.3424430714
  C        12.5483059134        2.3526177434       17.0646259704
  H         7.0930198477        9.4481708196       16.0138393487
  C         6.6988133713        7.8749905831       17.3429704193
  H        13.9997657770        7.2265898599        5.6688423264
  H        14.8622535998        7.2624766989        4.1088701729
  C        15.4439995250        5.7179395085        5.3930265483
  H         6.9328478133        7.3475062083        2.5001917873
  H         7.7277000565        6.8429935262        1.0141127522
  C         6.0822539002        5.5895423214        1.4905691652
  N        11.4969333419       -0.4007852606        1.3222951171
  C        12.2031213172       -0.0344789199       -0.8639226859
  C        12.1517218300        2.1546812388       -1.9465933913
  H        11.9741432791        3.8455740456       -0.7589038923
  H        12.8120810234        3.1151046331       17.7562445054
  H        13.2127440121        1.5107553953       17.2362340278
  H        11.5568174947        1.9285893329       17.3007847193
  S         6.2151989432        6.2597252204       17.7496961801
  C         6.7894139375        8.8144481489       18.4888679798
  H        14.9763132454        5.2447046859        6.2752301595
  H        15.7034187772        4.9413277310        4.5561799226
  C        16.6622356030        6.4845032983        5.8769755267
  H         5.7438741290        5.0195484792        2.3441367023
  H         6.3993946653        4.8509528333        0.7635237732
  C         4.8618467648        6.3508405347        0.9692428055
  S        11.7833584368       -1.8431675062        0.7626272558
  N        12.3185607775       -1.4234092211       -0.7632343344
  C        12.4102129156        0.7086861021       -2.0568056023
  H        12.2204830975        2.6963657464       -2.8921236589
  C         5.9644299422        6.8613979206       19.3638030043
  N         6.4451435064        8.1164283554       19.5762547711
  O         7.1004110181       10.0226049078       18.4261100818
  H        17.1657824573        6.9096191579        5.0162906510
  H        16.3199591719        7.3994662555        6.3958412811
  C        17.5734483502        5.6068238447        6.7818696241
  H         5.2040047567        7.1611832649        0.2535493634
  H         4.3117595490        5.6735143587        0.3535300533
  C         4.0126939110        6.9373700060        2.1164199928
  C        12.6896236036       -0.0088042627       -3.2538799248
  S         5.4488413971        5.8418386098       20.6132863793
  C         6.5053829688        8.7138104422       20.8964531076
  H        17.0465433500        5.0533753421        7.6567383301
  H        18.0616517178        4.8044635440        6.2257267847
  C        18.6773462963        6.3499305553        7.4261090312
  H         4.5869812538        7.2924796943        2.9152563013
  H         3.2915925643        6.1782329353        2.4485815297
  C         3.3553398945        8.2243350346        1.6190060173
  H        12.3519963688       -1.0424672676       -3.2118361486
  C        13.1769174162        0.3328955705       -4.4002748907
  H         6.2315931193        8.0466147371       21.6246289489
  H         5.7245535660        9.4686403857       20.9233051269
  C         7.8803710616        9.3070838171       21.3074209001
  H        18.8640613257        5.8531035255        8.3188557622
  H        18.2873316760        7.3592249271        7.8307250725
  C        19.8766303958        6.5013170767        6.5445437556
  H         3.3238500520        8.3319910838        0.5529406895
  H         2.3124221453        8.2876570833        1.9285941938
  C         4.0960987337        9.4494195821        2.0146706616
  S        13.8304335774        1.8517299146       -4.8089669955
  C        13.1307950067       -0.7533571023       -5.4403841425
  H         7.9151497289       10.3715385043       21.0347768684
  H         8.6666774460        8.7438232089       20.7969156167
  H         7.9842338441        9.2306748875       22.4185615630
  H        20.3924042731        5.5249409391        6.6420643840
  H        19.7383711302        6.7919055618        5.5531165856
  H        20.6440692416        7.1415005376        7.0343342560
  H         4.1420690981        9.6480490377        3.0705222212
  H         5.1225087040        9.4899794743        1.6903899625
  H         3.5431869251       10.3253044787        1.6270551396
  C        13.9714771928        1.0417788442       -6.4150889058
  N        13.7674113779       -0.3288850941       -6.5020092123
  O        12.7799231220       -1.9354881532       -5.2747572249
  S        14.6933027712        1.8685757081       -7.7861432854
  C        13.7719238982       -1.0440072191       -7.7300789120
  H        14.0460122708       -2.0679709304       -7.5496356898
  H        14.6248249934       -0.7651976941       -8.2914149799
  C        12.4798962502       -0.8319465574       -8.4669505474
  H        11.6420382224       -0.5907824591       -7.8162533661
  H        12.2376553012       -1.6212556125       -9.1317549795
  H        12.6221543855       -0.0365382419       -9.2962461225
