352
 i =    27300, time =    13650.000, E =        98.8863290441
  H        10.0778581814        4.4625775793       31.4192668933
  C        10.4505769411        5.3863437968       31.8617469758
  H         9.5500984148        5.9276054677       32.2294596515
  C        11.1523410568        6.3730297525       30.9284805100
  C        11.4297886571        5.1141119559       33.0219148297
  C        11.6548015018        5.5614513780       29.6957027261
  H        10.3600793021        6.9968537650       30.6006257018
  H        12.0525853270        6.8039403234       31.3250189403
  H        11.0430377054        4.4933710453       33.7591757973
  H        12.5029911081        4.9695297659       32.6207847879
  H        11.5232106090        6.0650583998       33.5327863666
  C        10.5714587652        5.2159263155       28.6629434540
  H        12.0323767706        4.6105950528       30.0432895100
  H        12.4775450613        6.0821964067       29.2330111061
  C        11.1727678004        5.2964290753       27.2308203021
  H        10.4970519546        4.1906913264       28.8692826785
  H         9.6470755753        5.6826997589       28.8976863846
  C        10.1664254987        4.7681797786       26.1986354078
  H        12.1082467506        4.7132223705       27.1819844778
  H        11.4458638853        6.3392291217       26.9491934455
  C         8.9707098576        5.6201288846       26.0549345537
  H        10.7014597571        4.5559269550       25.3138644949
  H         9.8523039407        3.7526103113       26.4767557630
  C         7.8337995267        4.9265787607       25.3467161011
  H         8.6402980101        5.9973457259       27.0618340024
  H         9.1628553138        6.5177231354       25.4721376162
  C         7.3807533003        3.5962524863       26.0024900940
  C         8.2212947723        4.1755971382       24.0955567983
  C         6.5287156852        5.7646531205       25.1676298418
  C         7.5365811036        2.4705759249       25.2230136298
  C         6.8638332300        3.2668902291       27.2340053058
  C         8.1076601015        2.8412250339       24.0194085786
  C         8.6555590463        4.7859171622       22.9237070574
  H         6.8339845821        6.4597800025       24.3730996821
  H         6.3319474315        6.3567640784       26.0459692826
  C         5.3272854092        4.9592914122       24.6526191497
  S         6.9460461793        1.0348791690       25.9002592285
  C         6.5784488095        1.8968209892       27.3141099413
  H         6.6456448440        4.1184196994       27.9779117300
  C         8.4658790166        2.2195684760       22.8828492797
  H         8.8239545363        5.8557291622       22.9416237834
  C         9.0447116504        4.1048069190       21.8128839194
  H         5.6671045534        4.4727649721       23.7533629030
  H         5.0626037759        4.2278919988       25.3727680210
  C         4.1199076913        5.8793475856       24.2304028278
  C         6.0460789155        1.1905822310       28.5647515812
  C         8.9630690903        2.7844227651       21.6840521790
  H         8.3773459779        1.1334898355       22.8067933039
  C         9.4119202187        4.5113877546       20.5411109321
  H         3.6814656356        5.4456839794       23.4782150750
  H         4.3134938167        6.8879682633       23.8755031490
  C         3.3500709205        6.0215482666       25.4773375573
  C         5.9585207735       -0.2208320121       28.7869185210
  C         5.7293095583        2.0214309599       29.6935857036
  C         9.4270970072        2.0598272739       20.5017529115
  C         9.6479544193        3.4363328611       19.7162258378
  S         9.6532039837        5.9733293342       19.7427433108
  H         2.8488321526        6.9978113797       25.4831375333
  H         4.1352197445        6.0247032074       26.2063081375
  C         2.3003797554        5.0208573828       25.7917304660
  N         6.2757349469       -1.2068199124       27.7919468314
  C         5.6672530796       -0.7686132695       30.0210248553
  C         5.3211489011        1.4955104123       30.9448355373
  H         5.8529703083        3.1190665347       29.6083309836
  C         8.2314454442        1.3799866522       19.7822373945
  C        10.7206632050        1.1963817880       20.5645670380
  C         9.9274696081        3.7929070226       18.3740450392
  C         9.8750155009        5.1719302142       18.2183158690
  H         1.5228677352        5.0507099464       25.0648774509
  H         2.6310433482        3.9926767484       25.5442622605
  C         1.5579159090        5.2440185900       27.1236725868
  S         6.1268980604       -2.7064543335       28.4418824761
  N         5.6987072939       -2.1825992417       29.9100928866
  C         5.3740090128        0.0444337666       31.1493665929
  H         5.0784885775        2.2356654198       31.7547459169
  H         7.8756475314        0.7177780534       20.5316179344
  H         8.6797139156        0.7656130272       19.0169904424
  C         7.0405243119        2.1953969319       19.2749833717
  H        10.9543252448        0.8872548339       19.4628352557
  H        10.5828827246        0.3296364261       21.1591615262
  C        11.8997802023        1.9269427946       21.1691868880
  H        10.0433525336        3.0709692908       17.5887006359
  C         9.9714692027        5.9827544074       16.9552348844
  H         0.9385483251        4.3387437536       27.2063121730
  H         0.8987115927        6.1394211332       27.1818591094
  C         2.5517686909        5.1991928334       28.2909731587
  C         5.0245653324       -0.6462979517       32.3747859055
  H         7.2932529615        2.9391915822       18.5445924915
  H         6.5506822449        2.8671027972       20.0248953105
  C         5.9545908328        1.2492050084       18.6957907129
  H        11.6438957207        2.0890625142       22.2004473978
  H        12.0655364769        2.9256088122       20.6567666870
  C        13.2409232650        1.1757418243       20.9643376869
  C        10.0821002665        7.4253983749       16.9009784148
  C         9.9564300793        5.2412954679       15.6832638551
  H         3.3497218172        4.3971031615       28.0979106091
  H         3.1163978045        6.1524870406       28.3803797587
  C         1.8289344521        5.0495677972       29.5905122600
  H         5.0815743193       -1.6731754962       32.2724855146
  C         4.8432772168       -0.1946000236       33.6380654253
  H         5.6118930500        0.6539094417       19.5151005307
  H         6.5485943064        0.6282214337       18.0123472460
  C         4.6809438113        1.9082440044       18.0848623716
  H        13.1369096312        0.1534609143       21.3156347272
  H        13.4546230528        1.2070576995       19.9272258342
  C        14.4754107492        1.7673963241       21.6549259649
  N         9.9618135049        8.3408484694       17.9894100522
  C        10.2695149161        8.0757468444       15.7048071545
  C        10.2483208776        5.8772029679       14.4970418022
  H         9.7797121103        4.2088065302       15.6437475176
  H         1.0450831257        4.3723550985       29.6691597576
  H         2.5057126743        4.6554527904       30.3755223821
  H         1.4357023859        6.0663577222       29.8581266659
  S         4.6997407625        1.4598226834       34.1398835340
  C         4.6055153708       -1.1513543713       34.7433166953
  H         4.6148883639        2.8587967748       18.6720412019
  H         4.8974259201        2.1381878266       17.0604761857
  C         3.3910200466        1.0354721255       18.0994916614
  H        14.5468412654        2.8609438445       21.2965675675
  H        15.3189774768        1.2434812445       21.2365200039
  C        14.4618427633        1.5987483264       23.1980438877
  S         9.9880717912        9.8233506440       17.3869355261
  N        10.4119594793        9.4379719595       15.9045844602
  C        10.5302666697        7.3909157526       14.5134751150
  H        10.3998717129        5.2921073708       13.6017688460
  C         4.5756630215        0.8406833443       35.7461948909
  N         4.3797594993       -0.4486831472       35.8649024835
  O         4.7758100199       -2.3761171616       34.6373370403
  H         2.6114480210        1.4775115181       17.4280704610
  H         2.8839712893        0.9966512754       19.0637343085
  C         3.5643450217       -0.3786787543       17.7035059930
  H        13.4545582797        1.7599773091       23.6039423555
  H        14.7708173050        0.5758633245       23.4593580547
  C        15.4740273034        2.5395607598       23.8695834625
  C        10.7518777504        8.1029629724       13.3029386294
  S         3.8506992549        1.7511492309       37.0582416039
  C         4.4324214981       -1.1641097584       37.1790396374
  H         3.9806692014       -0.3678865051       16.6967351289
  H         4.2936431590       -0.9607506100       18.3388563801
  C         2.2631613516       -1.1134845971       17.4753818279
  H        15.0812557624        2.6904313038       24.8505835973
  H        15.5659113749        3.4875899428       23.4234523953
  C        16.8926510792        2.0138658338       24.0588599691
  H        10.6528742326        9.1483799494       13.4016773920
  C        11.2911007026        7.7592645644       12.1415612063
  H         3.6947616062       -0.8080316993       37.9165498281
  H         4.1867194104       -2.2637177445       37.0457755799
  C         5.8212482881       -1.1717911493       37.7929861631
  H         1.5518017543       -0.5496410048       16.8148907954
  H         1.7092614907       -1.1771577624       18.3668189630
  C         2.3267275870       -2.5293175508       17.0370475524
  H        17.4760674254        2.6974794054       24.6973153067
  H        16.9423000830        1.0929934035       24.6409245776
  C        17.6253690677        1.8266631732       22.7875126196
  S        11.9007958960        6.2364063640       11.7959955564
  C        11.4098527906        8.7683503755       11.0217659096
  H         6.7272207955       -1.1911496432       37.1987814945
  H         6.0035884776       -0.2624360854       38.3484301489
  H         5.9708308721       -1.8130045149       38.6757638182
  H         2.3803805273       -2.5855482032       15.8999151104
  H         1.4075175020       -3.0483767753       17.3015543661
  H         3.2014792627       -3.0486829476       17.5325308729
  H        17.3278545549        0.8556556049       22.4202878414
  H        18.7238949337        1.9666067232       22.8546802080
  H        17.2918867588        2.4909871331       21.9816138841
  C        12.4178979499        6.9162960728       10.1650912631
  N        12.0712205997        8.2150280276        9.9842443275
  O        11.0164046596        9.9646840412       11.1594527236
  S        12.9120187297        5.8664122462        8.7567589000
  C        12.2967110341        8.9457503114        8.7377718250
  H        12.3493808328        9.9611249824        8.9784328780
  H        13.1986656651        8.5247939558        8.2554178174
  C        11.1438644515        8.7840562627        7.7525172838
  H        10.9673512250        7.6507528901        7.7328967379
  H        10.2449511800        9.2358817575        8.1540051915
  H        11.5174538578        9.1519213701        6.7930992959
  H         4.2233613626        0.7213655508       12.4133811428
  C         4.1313702841        1.7780541851       12.7291416087
  H         5.1430463597        2.2774156216       12.9064417698
  C         3.3404097544        2.3795226191       11.6086588298
  C         3.2351878555        1.8062514560       14.0708493632
  C         4.2344814167        2.5879102944       10.2619117875
  H         2.9416344220        3.3530958878       11.8371026885
  H         2.4505266349        1.7784032807       11.3773705151
  H         2.9738087099        0.8149599479       14.4450258969
  H         2.5047720205        2.5823844657       14.0587909925
  H         3.8129172813        2.0741065928       14.9542675107
  C         4.5808984540        1.2396800351        9.5603527328
  H         3.8299644086        3.2031762021        9.4277556799
  H         5.1814024430        3.0712221528       10.5941116118
  C         5.2771091827        1.4961367385        8.1720081504
  H         3.6400286382        0.6473120402        9.5901891822
  H         5.2683923656        0.6323047018       10.1775834150
  C         6.6078628092        2.2802744933        8.2864368066
  H         4.4606782528        1.7925396599        7.4959074910
  H         5.5023690027        0.5231770311        7.7663678612
  C         7.8976834052        1.5151449549        8.7810727713
  H         6.7339639038        2.6399341735        7.2582243213
  H         6.3555984228        3.0634933917        8.8779146564
  C         9.0855669463        2.4339099731        8.9972400842
  H         8.2218522456        0.7609922680        8.0690233152
  H         7.7215138843        0.9602559985        9.6722306216
  C         8.6295492525        3.7466279321        9.7180256419
  C         9.5946598051        3.2305128618        7.8037372047
  C        10.2002732754        1.8186714455        9.8603611136
  C         8.9562526209        4.8709333386        9.0038449472
  C         8.0962535873        4.0205902362       10.9734114647
  C         9.5394181383        4.5672381319        7.7704613733
  C        10.0510110632        2.5758936556        6.6439068556
  H         9.8097855221        1.1278454771       10.6394112291
  H        10.6561937177        1.1792237679        9.0920061147
  C        11.2713449409        2.8351604430       10.2933545954
  S         8.6129092429        6.3674917550        9.7673989571
  C         7.9917227891        5.3909396324       11.1392514545
  H         7.9727100260        3.2144637232       11.6855985387
  C         9.9019235018        5.1774748955        6.5965228020
  H        10.1360330930        1.5491753632        6.6145677264
  C        10.4774852151        3.2525340701        5.5017130446
  H        10.8922398446        3.6046837285       11.0248591409
  H        11.6479528982        3.3257458219        9.3730320387
  C        12.3975066888        2.1626825731       11.0753715569
  C         7.5737513234        6.1738617827       12.3782553781
  C        10.3976272906        4.6021733400        5.4126975104
  H         9.7617346049        6.2792055142        6.5219644883
  C        11.0129110643        2.8704266804        4.2927146143
  H        13.3345956841        2.7396391272       11.0971568792
  H        12.5448752127        1.2062536945       10.5869707441
  C        12.0385222901        1.8896557406       12.5245773227
  C         7.6827332414        7.5690684338       12.5958074117
  C         6.9622955190        5.3523627695       13.4923203258
  C        10.8556918141        5.3571508497        4.1869801276
  C        11.2650133154        3.9878871351        3.5185955977
  S        11.3331230364        1.4246925507        3.5427983925
  H        11.2485600596        2.5838851144       13.0194493583
  H        11.6933162994        0.8673754350       12.4876195962
  C        13.3040748333        1.7820188072       13.3440964385
  N         8.1237329246        8.5648515854       11.6637841138
  C         7.4411634236        8.0844860479       13.8634585185
  C         6.6355703132        5.9397893000       14.7229667348
  H         6.6576128112        4.3262156319       13.3163895268
  C        12.0957464382        6.2206769855        4.5738972787
  C         9.7915394621        6.1007618850        3.3988588227
  C        11.7100498709        3.6121366434        2.2537805161
  C        11.7601584968        2.2646657026        2.1287472421
  H        13.5224305050        2.7856622012       13.5783802568
  H        14.1518827748        1.4339778973       12.7239080302
  C        13.1494145533        0.9256253721       14.5765563632
  S         8.1759146780        9.9910776730       12.4098137545
  N         7.8340194373        9.4581350927       13.9148727236
  C         6.9494079381        7.3842903047       14.9650522479
  H         6.0064150483        5.4148427446       15.4294380711
  H        11.7790293102        6.9400339613        5.3456929975
  H        12.4258528630        6.8488210308        3.7556314706
  C        13.3782269450        5.4526203999        5.0590121056
  H         9.4373955638        6.9074568003        3.9678080223
  H        10.2105314323        6.5283816321        2.5518956095
  C         8.6999492325        5.2771950043        2.7582640830
  H        11.9810332852        4.3498862760        1.4734984532
  C        12.0306033116        1.5687954827        0.8909341032
  H        12.6616333164       -0.0350706033       14.3157843379
  H        14.1269082719        0.6887385038       14.8499897423
  C        12.3703090257        1.6442672895       15.6944776288
  C         6.7659812746        8.1332651248       16.1584591744
  H        13.0534589837        4.8536298330        5.9013061426
  H        13.7151711227        4.7003294421        4.2735074701
  C        14.6062146324        6.2528280769        5.4346378221
  H         8.3992499530        4.6074265818        3.5953064916
  H         9.1332285881        4.7282568873        1.9365585476
  C         7.4788624875        5.9981197389        2.2333321915
  C        12.0088433107        0.1650692297        0.7091826467
  C        12.0344253739        2.4190146289       -0.3121958669
  H        11.5409289490        1.0053350612       16.1468927437
  H        11.8617614850        2.4846622306       15.1792056730
  C        13.2391174077        2.3838923048       16.7258856909
  H         6.6552466332        9.2299568064       15.9766544861
  C         6.6016383668        7.7168966183       17.4399780394
  H        14.3528522357        7.1279384998        6.0210701789
  H        15.0999727854        6.6124968079        4.5153132156
  C        15.6880021059        5.3789833524        6.1170990753
  H         7.0209464924        6.5456965729        3.0626039014
  H         7.7747353450        6.7365118923        1.4650252024
  C         6.4534701291        4.9501581060        1.7503595928
  N        11.8194130966       -0.8019694434        1.6516874761
  C        12.2803970615       -0.3503550927       -0.6082154702
  C        12.4261881201        1.9108682091       -1.5255274922
  H        11.9617604074        3.4961823289       -0.3607079739
  H        14.1598092967        2.7254053550       16.2665881628
  H        13.4331296479        1.7869544512       17.5213460634
  H        12.7500039755        3.3363500210       16.9726828234
  S         6.5183921321        6.1388613165       18.0681971838
  C         6.5820873383        8.7973693352       18.4548510460
  H        15.4147455754        5.0165139799        7.1257521371
  H        15.9406237936        4.4714810667        5.5351568435
  C        17.0996804797        6.0902535797        6.2970505440
  H         6.4790918693        4.0308721395        2.4483504662
  H         6.9140012205        4.5299123797        0.8728128426
  C         4.9707383038        5.3781209375        1.3945991633
  S        12.0008183327       -2.2613180908        0.8683572784
  N        12.4604323539       -1.7307539082       -0.5984178096
  C        12.6657245846        0.4465296477       -1.7108567578
  H        12.4526145357        2.5431982361       -2.3808610247
  C         6.3925523494        6.9534008099       19.6396310028
  N         6.3497586967        8.2697909144       19.6442645238
  O         6.4002609695        9.9997259214       18.1576413076
  H        17.7740919948        6.0736721679        5.3633602845
  H        17.1422526677        7.1261034702        6.5206787141
  C        17.8842099987        5.5873598574        7.4465753123
  H         4.6929981618        5.3033648918        0.3296726450
  H         4.4454535294        4.5410818746        1.8734701808
  C         4.4687145085        6.6739762801        1.9202894919
  C        13.1461831934       -0.2264538709       -2.8475489587
  S         6.2369148954        6.1079779266       21.0869975244
  C         6.2918202758        9.0115571788       20.8591517697
  H        17.2735812355        5.3707330518        8.3402446241
  H        18.2716109497        4.5888358925        7.1397967885
  C        19.1594764435        6.4142677313        7.8513374189
  H         4.8860836443        6.7235653160        2.8955590579
  H         3.4121317714        6.7127490873        2.1007609782
  C         4.9731027520        7.8117693815        1.0867239147
  H        12.8067140723       -1.2508913275       -2.9118335582
  C        13.6505040656        0.1516731394       -4.0520065594
  H         5.6241172214        8.5192959679       21.4976959751
  H         5.8593424027       10.0099735270       20.6633454573
  C         7.6722531709        9.1863304877       21.5297244156
  H        19.6496612798        5.9163111546        8.6736060589
  H        18.8985075827        7.3311026466        8.3995648183
  C        20.1255631132        6.7134807730        6.6598164845
  H         6.0678645015        7.9801617108        1.1089838408
  H         4.6235049395        7.6754424448        0.1131150122
  C         4.4211992568        9.0520989711        1.6320840066
  S        14.0869129963        1.7409037058       -4.5295967467
  C        13.7024765364       -0.8658671021       -5.1406716150
  H         7.9220988713        8.3418453579       22.1991541643
  H         7.7986371869       10.1841588333       21.9563651425
  H         8.4399985535        9.1771543523       20.8075916751
  H        21.1196252934        6.9180951911        6.9410672267
  H        20.0965445344        5.9048698776        5.9010919115
  H        19.7185054338        7.5180789396        6.1200297033
  H         3.3504817858        8.9723390955        1.4211997975
  H         4.6200014832        9.0175354580        2.6547742348
  H         4.8457926453        9.9617450767        1.2352209149
  C        14.6113376381        0.9630208049       -6.0361120018
  N        14.2843085472       -0.3582844153       -6.1606063090
  O        13.3402845457       -2.0086662617       -4.9678920344
  S        15.3909986905        1.7384591922       -7.4322325511
  C        14.5937267371       -1.1729565131       -7.2766497850
  H        14.8365734606       -2.1307754417       -6.8778381347
  H        15.4504755010       -0.8682769334       -7.9148295194
  C        13.3623140959       -1.4070326433       -8.1790528276
  H        13.0975503903       -0.6190010289       -8.8570736144
  H        12.5014707949       -1.4569269065       -7.5367617690
  H        13.3232258560       -2.3367167479       -8.7903593686
