352
 i =    16600, time =     8300.000, E =       108.8808146776
  H         9.6759793677        6.6943281013       31.1657414599
  C        10.6893669487        6.4501514851       31.5108091021
  H        10.9661630014        7.4195857449       31.9276024227
  C        11.7664470720        5.9769208404       30.5751823596
  C        10.6686498603        5.3578651086       32.5393912003
  C        11.2115204745        4.9310866691       29.5872785592
  H        12.1237817447        6.8163624246       29.9678792299
  H        12.5698866314        5.5250081296       31.1065167138
  H        11.5831769054        5.3847877355       33.0899921470
  H         9.8197613587        5.5583366568       33.1696962160
  H        10.6332988194        4.3932478233       32.0749605555
  C        10.1756566598        5.5153594570       28.6188498250
  H        10.8122617381        4.0423465884       30.1526070958
  H        12.0575439435        4.4785483146       29.0958999139
  C        10.6608825372        5.5242451232       27.1850581975
  H         9.3273251247        4.9698101055       28.7935641198
  H         9.8042439143        6.5152817466       28.9813205892
  C         9.6515920771        4.8498439432       26.2891430735
  H        11.6108102345        4.9698452326       27.1605808800
  H        10.9639788227        6.4991744634       26.7242658732
  C         8.5487047479        5.8068504511       25.8227193259
  H        10.2265664350        4.5248468220       25.4787198455
  H         9.3307520385        3.8563935704       26.6707393202
  C         7.3627316769        5.0389640047       25.2172935549
  H         8.1245325570        6.4996551416       26.6328626404
  H         9.0229421789        6.4424347196       25.0388025646
  C         6.9639539524        3.6990170937       25.8600282909
  C         7.7943255382        4.3010953283       23.9843332459
  C         6.1499705448        5.9240885514       25.0787968324
  C         7.1146037053        2.6031765468       25.0969926133
  C         6.3447219460        3.3001021328       27.1530191628
  C         7.6608495360        2.9252982869       23.8811770134
  C         8.2595716765        4.8419793892       22.7810175199
  H         6.4874156920        6.8943385428       24.5592614147
  H         5.8319848100        6.2014198936       26.0674894809
  C         4.8739904788        5.3772708560       24.4050741377
  S         6.6566392674        1.0707448020       25.8562009478
  C         6.2823112569        1.9374550734       27.2755219642
  H         6.0674316199        4.0915253695       27.8429676390
  C         8.0709552919        2.2324688996       22.7386435074
  H         8.3022300798        5.9123591153       22.7638061696
  C         8.5181299855        4.1594465827       21.5856315792
  H         5.0682900593        4.7302420313       23.4548213222
  H         4.5483341069        4.6198298738       25.1612623596
  C         3.7030863614        6.2604245553       24.2123374750
  C         5.7689316576        1.2897156268       28.5311344408
  C         8.3941730361        2.8316454335       21.5301574134
  H         7.9987969847        1.1650620929       22.6896652984
  C         8.9614301432        4.5491164570       20.3452657817
  H         2.8996684590        5.6867167090       23.6472305003
  H         3.8199396625        7.1643239663       23.5702014858
  C         3.0213184904        6.8434489624       25.4466531699
  C         5.9136024206       -0.0652725929       28.8597538942
  C         5.3747934531        2.2045445215       29.7070369738
  C         8.7737706696        2.1375482120       20.2030185217
  C         9.1308362096        3.4793338604       19.5064902326
  S         9.3009956184        6.0410336883       19.6564256596
  H         2.2915962599        7.5945176729       25.2598134681
  H         3.7316740161        7.2029665081       26.1478322957
  C         2.2948772557        5.7851858151       26.3362148793
  N         6.2521312756       -1.1321970049       27.9929677089
  C         5.6242283690       -0.5397168825       30.1283064963
  C         5.0353823671        1.6665292961       30.9755214236
  H         5.3249673562        3.2425810049       29.4723599149
  C         7.5729571930        1.4363113670       19.6315065092
  C        10.0078443515        1.1968943667       20.4477020483
  C         9.3986467308        3.8638894845       18.1968378934
  C         9.5626932547        5.1977300251       18.1873353303
  H         1.6816214544        5.0825319329       25.7935206594
  H         3.1948247925        5.1698831916       26.7171645994
  C         1.5256961123        6.3624218356       27.4205035874
  S         6.1910628266       -2.5888014612       28.8668660005
  N         5.8901832574       -1.9012773365       30.2840026562
  C         5.2064752932        0.2754479654       31.2739365166
  H         4.8830371422        2.3442094049       31.7657701229
  H         7.2522353185        0.6503997981       20.2633577099
  H         7.9760969593        1.0536108657       18.6685121971
  C         6.3241176989        2.2913999500       19.2937370604
  H        10.2003310108        0.5397652273       19.6168252292
  H         9.6825969527        0.5193536432       21.1151587929
  C        11.2918339730        1.8604267382       21.0350635204
  H         9.4379740157        3.1449565048       17.4075875203
  C        10.0001802374        6.0063080340       16.9555331593
  H         0.7179780537        6.8615807240       27.0049680166
  H         2.0148297118        7.0647784892       28.1365575878
  C         0.9421084201        5.3337347856       28.3683811353
  C         4.9883327410       -0.3842605580       32.5032078950
  H         6.5353230064        3.1270071341       18.6746782064
  H         6.0059959034        2.7344829761       20.1753984103
  C         5.1786077448        1.5474080513       18.6327906721
  H        11.1702513232        2.5286288451       21.8900380553
  H        11.7027651638        2.5702106846       20.2815859584
  C        12.3186167148        0.8066416969       21.4688653487
  C         9.9641502503        7.4549277958       16.7144783470
  C        10.3553844118        5.2749825487       15.7211609293
  H        -0.0948405328        5.0715249044       27.9779653652
  H         1.5880388645        4.4172689117       28.5165318460
  C         0.7428175905        5.8616042988       29.7566542253
  H         5.1605059365       -1.4289246817       32.4541207355
  C         4.6277868123        0.0578099385       33.7395263944
  H         5.0031698024        0.5860567096       19.0771699034
  H         5.4844786072        1.2760793805       17.6114276823
  C         3.8908094886        2.3814566991       18.7388255551
  H        12.0325869548        0.4862812026       22.4881515260
  H        12.2196967226        0.0686141697       20.7027409352
  C        13.6868929296        1.5005086495       21.4950931736
  N         9.7771619207        8.3160511030       17.7740603475
  C        10.1071667254        8.0612142454       15.4944412221
  C        10.6409239286        5.9357361965       14.5192696594
  H        10.3078404243        4.1424754352       15.7452224827
  H         0.4936797803        5.0311004661       30.4764625685
  H         1.5329085436        6.5066257767       30.1140522796
  H         0.0027050856        6.6172919011       29.6137149331
  S         4.3093654767        1.7222540747       34.1977371275
  C         4.6774263689       -0.9434766368       34.9101043247
  H         3.9136555691        2.8881927446       19.7397343926
  H         3.8624099444        3.1795715448       17.9692373453
  C         2.6666832218        1.4795311280       18.8367549055
  H        13.8295879138        2.3342478418       20.7951023568
  H        14.4092824776        0.7204035027       21.3148545931
  C        13.8430509021        2.2839944629       22.7647223317
  S         9.7154793854        9.8598621589       17.1495319411
  N        10.1146505270        9.4477098130       15.6537268578
  C        10.4738878201        7.3884374381       14.2797615467
  H        10.8437489969        5.2747265435       13.6925183725
  C         4.1083135804        1.0613226355       35.8343967835
  N         4.2585927441       -0.2717971033       36.0093223054
  O         4.9709481042       -2.1052139003       34.9076506397
  H         1.8499760060        2.0309150819       18.4604590586
  H         2.4706700839        1.2887502482       19.9144228293
  C         2.7916772781        0.1654295497       17.9858687590
  H        13.0988419625        3.1174200818       22.8677053981
  H        13.5221265344        1.6237897821       23.5701535476
  C        15.2365185727        3.0110885192       22.8734306864
  C        10.7198548570        8.1369521951       13.0432148465
  S         3.8841995358        2.0964318064       37.1715969743
  C         4.2835785887       -0.9529989163       37.2740851179
  H         1.9728575824        0.2443721579       17.2662123707
  H         3.7321947870        0.0972200078       17.3413138664
  C         2.8204397524       -1.1442099256       18.7631868465
  H        15.2097280842        3.4894503847       23.8339356709
  H        15.3812812613        3.8384175437       22.0706974732
  C        16.4488079916        2.0488131796       23.0129477548
  H        10.6937851162        9.1647635616       13.0716586889
  C        11.3778841585        7.7419477771       11.8912686954
  H         3.5655564388       -0.3883904130       37.8833116780
  H         3.9053854909       -1.9631172765       37.2057409790
  C         5.6887624676       -0.9951946491       37.8554783764
  H         2.1695707650       -1.0044615514       19.6234875402
  H         3.7899811063       -1.2874458935       19.0745337306
  C         2.3163140988       -2.5023602230       18.0271827145
  H        16.8231782421        2.3257420979       24.0135779426
  H        16.2280905875        0.9788367517       22.9371133486
  C        17.5567533084        2.1447828742       21.9733751565
  S        12.0391375559        6.2266974292       11.5368735746
  C        11.4736337160        8.7585721213       10.8604056026
  H         5.8484483982       -1.5201010660       38.7778970248
  H         6.4636176945       -1.3150920188       37.1268053774
  H         5.9994663978        0.0076542430       38.1583879743
  H         1.6660329090       -3.1253724802       18.6369322761
  H         3.0988936642       -3.1243917873       17.6534619014
  H         1.7088649168       -2.3949168531       17.1090186378
  H        17.4951582723        3.1455441541       21.5158119083
  H        17.7119639165        1.3657852300       21.2119449753
  H        18.4718331745        1.9472994612       22.5340766790
  C        12.4605573170        6.9660550230        9.9581468813
  N        12.1944686290        8.3195603728        9.8875252431
  O        11.1147173641        9.9310123715       11.0160087240
  S        13.1725729256        6.0677343185        8.6172236378
  C        12.3797084686        9.1847166063        8.7184956501
  H        12.4805782877       10.2815945661        8.9485246186
  H        13.1208587287        8.7938912565        8.0116728886
  C        11.0240035356        9.1668212971        7.9490715393
  H        10.2733673177        9.8037588270        8.4047680093
  H        11.1203784885        9.5271758019        6.9662510654
  H        10.6955060674        8.1285581980        7.9335684601
  H         4.4695672598        1.0387338974       12.7282103839
  C         4.0417402946        1.9506206446       12.9894866358
  H         4.8136581953        2.7064175025       13.1365681035
  C         3.2426363037        2.3347835210       11.8028945906
  C         3.1242134757        1.7765659882       14.1934008560
  C         4.0394395671        2.8327685652       10.6523471771
  H         2.5959091833        3.0787610086       12.1047269146
  H         2.5651135362        1.5193053197       11.5996957323
  H         2.2280400167        1.2258249102       14.1234084027
  H         2.8114869017        2.7912508748       14.5847239263
  H         3.5971765141        1.1979680057       14.9096537651
  C         4.7794625396        1.6799521537        9.9640914138
  H         3.4436841803        3.3673222280        9.9706955017
  H         4.6760143095        3.6783824495       10.9164648295
  C         5.3582390806        1.8428905522        8.5892749198
  H         4.0254147855        0.8717728506        9.8684798937
  H         5.5471178116        1.2298046300       10.5486664301
  C         6.6226394844        2.7561948841        8.7778501096
  H         4.5673603952        2.2318200816        7.8914404915
  H         5.6503481950        0.8934449788        8.1052337852
  C         7.9460410899        1.9632690218        9.0891146125
  H         6.7909598960        3.2596919111        7.8349686756
  H         6.4226525907        3.5760240390        9.4435843390
  C         9.2760263442        2.7897016182        9.1667603612
  H         8.0728547835        1.2153081469        8.3294646181
  H         7.8624758706        1.4254980328        9.9896211325
  C         9.0841517639        4.1818078994        9.8545485085
  C         9.6838590618        3.5212217730        7.9179011408
  C        10.3786900769        1.9632196882        9.8884765542
  C         9.2899920909        5.2821811154        9.0534005962
  C         8.4000025386        4.5843404017       11.0404834270
  C         9.7356091730        4.8881473548        7.8270900007
  C         9.9951025221        2.9542332371        6.6599500916
  H         9.9644025739        1.4899277115       10.8168328979
  H        10.5229071162        1.1285501607        9.2151231772
  C        11.6763368395        2.7385230861       10.0034395336
  S         8.9167973187        6.8166673452        9.7802870806
  C         8.1879077653        5.9962140895       11.1622909401
  H         8.0521635745        3.7813823783       11.6200653670
  C         9.9577944582        5.5449440459        6.6453958232
  H        10.1095681051        1.8811719323        6.7046517630
  C        10.2964903828        3.5631912128        5.5171975625
  H        11.4684613117        3.6676587466       10.5238427570
  H        11.9772083407        3.0731917981        9.0275141125
  C        12.7370071062        2.0473223670       10.8065309190
  C         7.6300612182        6.6859217064       12.4119444352
  C        10.2614441288        4.8941179416        5.4632523668
  H         9.8167882849        6.6255569323        6.5937732183
  C        10.6958763229        3.2009803649        4.2467310140
  H        13.6993770310        2.5236886492       10.4711005412
  H        12.8307713403        0.9767705098       10.6005599700
  C        12.2785595176        2.2488940341       12.2317845617
  C         7.4142358697        8.0256116812       12.5938850906
  C         7.2046148054        5.8372155002       13.5890273013
  C        10.5960708649        5.5625421571        4.1920640503
  C        10.8015372368        4.2792938425        3.4124723887
  S        10.9606404891        1.7259353340        3.4941733601
  H        12.0799964354        3.2667649058       12.5384438689
  H        11.4323663125        1.7033410285       12.4591194641
  C        13.3661604872        1.8657959262       13.2792506470
  N         7.8057760057        8.9635026265       11.6880445235
  C         7.1207661185        8.5956153578       13.8361063669
  C         6.8009999688        6.3494820499       14.7980439690
  H         7.2960175240        4.7935694195       13.5921846841
  C        11.8382757680        6.4841039704        4.3163453568
  C         9.3914001936        6.2181415953        3.5904664813
  C        11.2180986188        3.9750194093        2.1444319549
  C        11.2308007314        2.5976713589        1.9913873928
  H        14.0906664426        2.6660808875       13.4814619640
  H        14.0747900180        1.1052129415       12.8603986704
  C        12.8376930837        1.3795811902       14.6024713606
  S         7.6872323027       10.4724943561       12.3645383350
  N         7.2301726386        9.9841822184       13.9001604390
  C         6.7528191926        7.7878724446       14.9514257877
  H         6.7534882873        5.6925881560       15.6215803241
  H        11.5210269533        7.3335862947        4.8801692768
  H        11.9495935763        6.8044241971        3.2640180273
  C        13.1490326175        5.7693325495        4.7285706947
  H         9.0654800351        7.0964537071        4.1403761911
  H         9.7332531152        6.5942070345        2.5795417097
  C         8.1191780112        5.2690948669        3.5296079562
  H        11.4719380466        4.7724218570        1.3909382144
  C        11.5312443126        1.8895560568        0.6844731312
  H        11.8141857587        0.9914103178       14.4326395664
  H        13.4750013462        0.5635637100       14.8852645118
  C        12.9342945326        2.4626709808       15.7301924934
  C         6.5186417785        8.3829247040       16.2222715567
  H        13.0509311646        5.4784135419        5.7722237850
  H        13.4236808874        4.9030525172        4.2025598918
  C        14.3736056188        6.7855501185        4.6907588151
  H         7.9803254791        4.9084012303        4.5693970118
  H         8.2720618031        4.3281840408        2.9534315147
  C         6.8734039313        5.8657707887        2.8861967984
  C        11.6387766430        0.4822187473        0.4771644761
  C        11.9508734189        2.7169955917       -0.5021166913
  H        12.3037999284        3.2345616314       15.3520244862
  H        13.9829559686        2.7956687509       15.7837788457
  C        12.5557745808        2.0430487609       17.1752637891
  H         6.6159840827        9.4078307288       16.2394560899
  C         6.2617969373        7.9137575888       17.4884930951
  H        14.3407537124        7.4925091333        5.5673223120
  H        14.4334711117        7.2835842219        3.6905357146
  C        15.6786670405        5.9720301872        4.8714967521
  H         6.5008619580        6.6335973770        3.4984795653
  H         7.0455963961        6.3222625322        1.9327023079
  C         5.5691505555        4.9880008056        2.7810676591
  N        11.3434813160       -0.4462194894        1.4129026519
  C        11.9681577812       -0.0832624262       -0.6864078857
  C        12.1191675536        2.0890242140       -1.7101282892
  H        11.7948914423        3.7796007886       -0.4898487258
  H        11.6744547283        2.5130718009       17.5399586492
  H        13.3334031702        2.2422442732       17.9255158545
  H        12.3314328311        0.9729989947       17.2338297387
  S         6.0117316934        6.2488973939       17.9786207673
  C         6.3728330866        8.8936425218       18.6184885468
  H        15.7681411424        5.0367822996        4.2701357803
  H        16.4102694035        6.6418155461        4.4416396614
  C        15.8810384477        5.6516179516        6.3890357331
  H         5.3185575851        4.7863546599        3.8391533813
  H         5.7527397141        3.9864457347        2.1995604176
  C         4.2594308108        5.5754131373        2.3715791984
  S        11.3760409006       -1.9602873475        0.7394799810
  N        11.9529019170       -1.4401146253       -0.6805409387
  C        12.2999302911        0.5832198632       -1.8481125622
  H        12.2613941064        2.6735290128       -2.6170376873
  C         6.0269009096        6.9511267706       19.6601777147
  N         6.1181025391        8.2683987508       19.7915154881
  O         6.6148185401       10.0616411547       18.4200147374
  H        15.7659213663        6.5475523268        6.9176349913
  H        15.0746908168        5.0619808011        6.8210054119
  C        17.1445404189        4.9472349607        6.8111880206
  H         4.2402355342        5.4326612146        1.3002370068
  H         3.4734558511        4.9585123708        2.7972381524
  C         3.7997158138        7.0065446064        2.6837858633
  C        12.4710171824       -0.2256853533       -3.0841539697
  S         5.7858288695        5.9424582897       21.0682110468
  C         6.1780086035        8.9439626257       21.0547448167
  H        16.6717811327        4.3275599671        7.6253025320
  H        17.5449865125        4.1395362699        6.1385468572
  C        18.2487895909        5.6591320682        7.5262956021
  H         4.3813582015        7.3888811053        3.5415685911
  H         2.6880326196        7.0576731560        2.9454899363
  C         3.9909328714        7.8649368993        1.4198854013
  H        12.0947735802       -1.2178561929       -3.0504359449
  C        13.1087712985        0.0965353768       -4.2285450365
  H         5.4252243649        8.7485972566       21.8262560289
  H         6.0108451105        9.9407472325       20.7552537232
  C         7.5940003771        8.8223963952       21.6535026482
  H        18.6129867344        4.9975509302        8.3365200455
  H        17.8832791622        6.6283762178        7.8810707468
  C        19.4919520902        5.8596843078        6.6504681603
  H         4.6213378930        7.2999372676        0.7352017241
  H         3.0930422663        8.0259481510        0.8604569153
  C         4.5836699532        9.2259574628        1.6151546035
  S        13.8073361558        1.5721461440       -4.6615033192
  C        13.1787995389       -0.9448084015       -5.2411282135
  H         8.3043778053        8.4989620168       20.9381857546
  H         7.5834653970        8.1108699743       22.5080211749
  H         7.9927752086        9.8387933486       21.8678597279
  H        19.4168245442        5.2007960539        5.8024956100
  H        19.5422683041        6.9303364842        6.4195664564
  H        20.4169332978        5.6379784115        7.2549810378
  H         3.9484757605        9.7091769561        2.3983480964
  H         5.6117929445        9.1571367022        1.9505851459
  H         4.6052779736        9.7563160126        0.7106514315
  C        14.2972736422        0.8230735437       -6.1436331812
  N        13.8957795987       -0.4755144390       -6.2522521914
  O        12.6514775583       -2.0836745335       -5.1256918822
  S        15.2198636763        1.5190695913       -7.4666806098
  C        14.2023142553       -1.2655956507       -7.4666283459
  H        14.4811090656       -2.2206022441       -7.0403378964
  H        15.0503527610       -1.0067653684       -8.0963147500
  C        12.9137381175       -1.3827843269       -8.3084133494
  H        11.9853026819       -1.7593829458       -7.8192486726
  H        13.1473163054       -2.0542547005       -9.0501416137
  H        12.7481195996       -0.3435491801       -8.7551788027
