352
 i =    92900, time =    46450.000, E =       100.2336913616
  H        11.8310750843        6.7270897185       32.3596387552
  C        11.3336905688        5.7343746090       32.4527678855
  H        12.1980591080        5.0370453538       32.4096680456
  C        10.3366664610        5.4278632535       31.2416627897
  C        10.7667281983        5.4381594371       33.8839568586
  C        10.8060815291        5.6575786543       29.8461411939
  H        10.1563791941        4.3227339023       31.3409028558
  H         9.4310509569        6.0383390121       31.3095700706
  H        11.4747384478        5.7731726297       34.6582237632
  H         9.8842336059        6.0004110103       33.9943076621
  H        10.6184715411        4.3739898331       34.0495905095
  C         9.7259040673        5.8908419042       28.8186961615
  H        11.5633568729        4.8413477521       29.5855884338
  H        11.3740403672        6.5740248983       29.9142569175
  C        10.3005401445        5.8375206642       27.2941894776
  H         8.9787320876        5.0723509574       28.9669176498
  H         9.2008851966        6.8367356079       28.9136897641
  C         9.4110230331        5.0518753339       26.3979097267
  H        11.2683346328        5.2531895720       27.2979307999
  H        10.3772797321        6.8315953115       26.8449220685
  C         8.0795682414        5.8874702942       26.2150291125
  H         9.8667922314        4.9100051117       25.4572455969
  H         9.2849663741        4.0666333486       26.8435656726
  C         6.9464690390        5.2117331710       25.4883040190
  H         7.5600344894        6.2358448564       27.1420238482
  H         8.3538340400        6.7680436663       25.5674447274
  C         6.5752377328        3.8989356238       26.1973292716
  C         7.4474083243        4.4651916444       24.3205682365
  C         5.7981506629        6.2332082716       25.2204676350
  C         6.9322748172        2.7804313209       25.4267536584
  C         6.0748108408        3.5333392033       27.4227487741
  C         7.4216197122        3.1284697338       24.2330660575
  C         8.0746543071        5.0829891194       23.2180510011
  H         6.0679958983        6.8934279708       24.4186636786
  H         5.6645083973        6.8683126763       26.0834105217
  C         4.5106181082        5.5773497228       24.7265337850
  S         6.5598101789        1.2678707608       26.2580465514
  C         6.1497062373        2.1704145238       27.6361387687
  H         5.8947572156        4.3668199041       28.0532015336
  C         7.8538278778        2.5204050603       23.0985879708
  H         8.0542319539        6.1072581069       23.2115854671
  C         8.5736519312        4.4434354037       22.1199924248
  H         4.7329189022        5.3761305323       23.6732582667
  H         4.3857920063        4.6192640960       25.2180025496
  C         3.2239344699        6.3961390782       24.7871118709
  C         5.6448205072        1.4264932927       28.8699696317
  C         8.4590676258        3.1285711997       21.9864508374
  H         7.9807742025        1.4608583973       23.0638948685
  C         9.0727600091        4.8729920405       20.8933601738
  H         2.6057084505        5.9732573490       24.0177352673
  H         3.4684198473        7.4039000674       24.5012859003
  C         2.4544159091        6.4684530044       26.1412084098
  C         5.6983127610        0.0532865414       29.2144023824
  C         5.0381834425        2.2944485751       29.9109987753
  C         9.0458618349        2.4803301207       20.7815510758
  C         9.3603262144        3.7833336416       20.0956165159
  S         9.4218051455        6.3832633763       20.1146078851
  H         1.4784162028        6.8181357254       25.8844380973
  H         2.9313238148        7.1644451070       26.8408026638
  C         2.3402261938        5.1804001360       26.8258189143
  N         6.2311118309       -0.8957929625       28.3662915869
  C         5.4238216250       -0.3963297275       30.4573159764
  C         4.7137460487        1.8241782904       31.2081904516
  H         4.8288300133        3.3293557130       29.6572240384
  C         7.9533686367        1.7508985252       19.9553750491
  C        10.2928763899        1.6315657869       21.0308706688
  C         9.7084550147        4.1973644724       18.7977290845
  C         9.7159818825        5.5813235991       18.6447563499
  H         2.1186176580        4.3884873666       26.1354642808
  H         3.2977274451        4.9012769446       27.2369869762
  C         1.3183114015        5.1373505869       27.9844068681
  S         6.2686896122       -2.2665531049       29.1656932549
  N         5.7550912893       -1.7400280852       30.6787395739
  C         4.9362462887        0.3816652324       31.4934964698
  H         4.1798492907        2.3758049046       31.8996313199
  H         7.8077428891        0.7503533369       20.3866269189
  H         8.2923971323        1.6089462910       18.9438268885
  C         6.6123564890        2.4152327648       19.8064650087
  H        10.7050368264        1.3158774904       20.0652441590
  H        10.0433273887        0.7598112398       21.5797284473
  C        11.3768544022        2.4587540220       21.7329670743
  H         9.8315124831        3.4925320868       17.9963775643
  C         9.9008962524        6.3307210455       17.3535011742
  H         0.6661704147        4.3327586137       27.9522239193
  H         0.7162155411        6.0576158071       27.8574315537
  C         1.9689201970        5.3491239609       29.3840832547
  C         4.6985931035       -0.2744403085       32.7462614813
  H         6.5682254320        3.4723170458       20.1579710108
  H         5.8635647720        1.8367552641       20.2583055354
  C         6.2639950395        2.5761851489       18.3383321668
  H        11.0512896976        3.0313917528       22.6377208413
  H        11.7699353552        3.2751787124       21.1014999824
  C        12.4312193113        1.5291736062       22.2888913860
  C        10.0280559592        7.6951052303       17.1736534113
  C        10.0265576297        5.5408845284       16.0861518217
  H         2.7039894435        4.5260735971       29.5691005708
  H         2.4836022796        6.3478911501       29.4455960202
  C         0.9327319578        5.4046628196       30.4811451255
  H         4.6618986097       -1.3318092462       32.7103600409
  C         4.5230025269        0.1046941065       34.0199675340
  H         6.4916085124        1.6990188001       17.7772523618
  H         6.8169598218        3.2936529970       17.7489691489
  C         4.8216679673        2.9797231479       18.0885965186
  H        12.0478884225        0.8521677313       23.0572723924
  H        12.6565667554        0.8788582847       21.4625405410
  C        13.6565264352        2.2550523016       22.9182613443
  N         9.6434287820        8.6437958832       18.1786823673
  C        10.2913300628        8.3200353574       15.9925129268
  C        10.3436001222        6.1749513974       14.8797680286
  H         9.8275262639        4.5176491025       15.9544428784
  H         0.1478548285        6.0774703136       30.1528614037
  H         0.5334398116        4.4326895514       30.7325037803
  H         1.3990642145        5.6994757023       31.4700287380
  S         4.3915566534        1.6961518969       34.5562955250
  C         4.5328483885       -0.8815536877       35.1556697732
  H         4.3751237029        3.4961254824       18.9387597344
  H         4.9797996463        3.6736525915       17.2929389926
  C         3.8533642804        1.8559903756       17.6925684611
  H        13.1940739021        3.0656674779       23.4753766740
  H        14.1486271351        2.6784688509       22.0456534865
  C        14.5776851550        1.3464762612       23.6885203158
  S         9.8964197759       10.1485185245       17.5195741722
  N        10.3866409353        9.6763718807       16.0513635597
  C        10.6066840920        7.5662039729       14.8210510349
  H        10.5178989916        5.5771472647       13.9567522321
  C         4.0859179405        1.0373162255       36.2259090405
  N         4.2953917057       -0.2558767574       36.3615066749
  O         4.6465056242       -2.1013418036       35.0068646324
  H         3.9202595273        1.5433713028       16.6658310354
  H         2.8482534310        2.2672694740       17.6946033982
  C         3.7129506246        0.7010217030       18.7009518312
  H        13.9717831425        0.9040934249       24.5160197721
  H        14.9280219688        0.4312224344       23.2446782813
  C        15.7796351238        2.1565969481       24.1474612261
  C        10.9851761669        8.3265666421       13.7027507392
  S         3.7876276580        1.9715160224       37.7395063135
  C         4.4666859262       -0.9981457087       37.6338487847
  H         4.5693554195        0.0373515788       18.6276424355
  H         3.7179326218        1.1528466396       19.6987687849
  C         2.5774860955       -0.2202920238       18.3031234779
  H        16.2718511599        1.7389797908       24.9890281763
  H        15.3642643070        3.0963583678       24.5299716282
  C        16.8650139456        2.2662576133       23.0514411713
  H        10.5651966029        9.2909569451       13.6552137277
  C        11.5053130119        8.0510359768       12.4739580737
  H         3.8301715165       -0.5825288602       38.4178852764
  H         3.9272190144       -1.9323961867       37.5633551730
  C         5.9359127513       -1.1814244371       37.9551557434
  H         2.4240727941       -0.1839975132       17.2530712364
  H         1.6630804899        0.2013033581       18.7430748493
  C         2.7326760195       -1.7000369855       18.7165476301
  H        16.6852589483        1.6583241825       22.1965308717
  H        16.9606734064        3.2418660624       22.6169853315
  C        18.3222029424        2.0768665389       23.5244494962
  S        12.1657981603        6.5834502041       12.0015107235
  C        11.6580024795        9.1115059206       11.4664951028
  H         6.0509945923       -2.2676791087       38.1956272441
  H         6.5823289892       -0.8150862102       37.1468009434
  H         6.0188231075       -0.7140963427       38.8824468437
  H         3.3474704222       -2.2524303026       18.0849876850
  H         1.7819672593       -2.1893156339       18.8442592107
  H         3.0766900755       -1.7824058649       19.7344542710
  H        18.5054587266        2.1468695117       24.6029736910
  H        18.9058089161        2.8797165911       23.1018341257
  H        18.7408868987        1.1927802987       23.1535365496
  C        12.2697305616        7.2660146491       10.3476364577
  N        12.1288936489        8.6059169320       10.3029554195
  O        11.4425206932       10.2918756161       11.6612899938
  S        12.7869964035        6.4848096468        8.8053822143
  C        12.2421920315        9.4396309026        9.0898671272
  H        12.4251075852       10.4684899012        9.3208605108
  H        13.0658135575        9.0340811902        8.4628986076
  C        10.9312428808        9.2619699687        8.2304856282
  H        10.8781080865        8.2839483559        7.7731486692
  H         9.9915660713        9.5420631958        8.6972839481
  H        11.0797147462        9.9879689947        7.4100224897
  H         4.3040842910        1.2943228639       12.8953641572
  C         3.7013886905        2.2231987250       12.7768023499
  H         4.3814134293        3.1097779193       12.7315370182
  C         2.9556536027        2.1530210913       11.4477334203
  C         2.8035696373        2.4890351309       13.9730878735
  C         3.7708100057        2.5854943354       10.1838651162
  H         2.0383385035        2.6428567649       11.5394141208
  H         2.6880589586        1.0429026335       11.3952808324
  H         2.2416444759        3.3708698723       13.7508775332
  H         3.3564608602        2.7750756818       14.8129233214
  H         2.2464970472        1.5954653826       14.1692184986
  C         4.7869360128        1.4391598039        9.7779277618
  H         3.0308373872        2.7090475693        9.3338949080
  H         4.2623660809        3.4975747022       10.3812660870
  C         5.5172275328        1.6765758957        8.4683150673
  H         4.2630960706        0.4258273139        9.6757909393
  H         5.4331614965        1.1938526839       10.6082348504
  C         6.6430468614        2.6366897695        8.5680445822
  H         4.8525772811        2.0778165823        7.7091042778
  H         5.7635326402        0.6987395423        7.9823246032
  C         7.8583647557        1.9601632575        9.2520735408
  H         6.9377913422        3.0050722910        7.6140112596
  H         6.2762241445        3.5445655530        9.0986670227
  C         9.1058418185        2.8212446362        9.3493630930
  H         8.2396318013        1.0873456899        8.6934362156
  H         7.5902805649        1.5837094011       10.2443946668
  C         8.6990805164        4.1905366455       10.0472987813
  C         9.4999544586        3.5726739464        8.1682048236
  C        10.2734019770        2.0207506084       10.0080044397
  C         8.8974019271        5.2986394949        9.2337104674
  C         8.2298900324        4.5588023056       11.3275491661
  C         9.4708996213        4.9025576827        8.0259673493
  C         9.9808156417        2.9033048646        7.0326615534
  H         9.9468435542        1.6155179862       10.9351324279
  H        10.4602385961        1.1596414252        9.3427227946
  C        11.5297719471        2.9946961263       10.2145974820
  S         8.4662189719        6.8330374410       10.0391679677
  C         8.0763170667        5.9133413113       11.4303773115
  H         8.1594312906        3.8231359306       12.0732410671
  C         9.9246420401        5.5339091395        6.9144117378
  H         9.9660925139        1.8296662102        7.0300721511
  C        10.3431925117        3.5556053325        5.9116393734
  H        11.2900078698        3.9760431085       10.5648577432
  H        11.8680793715        3.1445761999        9.1937615868
  C        12.5732915860        2.4873193442       11.2380508574
  C         7.6701073743        6.5318119115       12.7496158989
  C        10.3326717741        4.8687136207        5.7835349013
  H         9.9334491075        6.5776895331        6.8587340346
  C        10.7479117095        3.1166041359        4.6624513693
  H        13.4554438607        3.0063042495       11.0005579641
  H        12.8125673597        1.4735682358       11.1714176707
  C        12.1392543404        2.8537119535       12.6121750602
  C         7.6243420000        7.9085240281       12.9966270886
  C         7.2118893438        5.6805169398       13.8304700346
  C        10.7643205791        5.5326394766        4.5032941621
  C        11.0009739188        4.1940239023        3.7947587985
  S        11.2354612538        1.5743652778        3.8376846866
  H        12.1648278035        3.9148481444       12.6450551252
  H        11.0473236111        2.7752807731       12.6192468115
  C        12.8059589605        2.1535264069       13.7018955882
  N         8.0566725854        8.8943334981       12.0880237448
  C         7.2500775413        8.4473080251       14.1913643370
  C         6.8992742095        6.2558169132       15.0717178142
  H         6.9479084851        4.6233313627       13.7047683854
  C        12.0690952881        6.3131090869        4.6526884856
  C         9.6793355509        6.3291490416        3.8800215058
  C        11.4848693999        3.8040624007        2.5463877236
  C        11.5124142277        2.4728160395        2.3707745144
  H        13.8975166538        2.4182881138       13.7564973567
  H        12.8020294268        1.0376361177       13.6123043063
  C        12.0305578875        2.3632777628       15.0906887260
  S         7.6962840858       10.3482535301       12.7159270927
  N         7.3143164765        9.8526784571       14.2133741823
  C         6.9209357010        7.7182631566       15.3191422481
  H         6.5745677547        5.5894580784       15.8654665361
  H        11.8334226449        7.1134081660        5.2693561487
  H        12.3094499570        6.8864619621        3.7526463004
  C        13.3211155964        5.5439078420        5.0863788524
  H         9.3090238827        7.0846000332        4.6354454040
  H        10.0633509133        6.8525684742        3.0369880503
  C         8.4199610775        5.5074370743        3.5629120538
  H        11.6245673981        4.6274443564        1.8255315240
  C        11.8797918320        1.8356526883        1.0394879901
  H        11.7231722889        3.3798823604       15.1512515325
  H        11.1409612076        1.7893863986       15.3428456862
  C        13.1012534730        2.0781288532       16.1790756612
  C         6.7327849232        8.4801031129       16.5905010930
  H        13.1082971210        5.0998762916        6.0535324051
  H        13.5178678683        4.6275460698        4.5160355452
  C        14.5149040452        6.4761769447        5.3656630443
  H         8.1125399899        4.9801423176        4.5126317144
  H         8.6177331290        4.6616884156        2.9108093220
  C         7.2712994478        6.4869966182        3.0421078620
  C        11.8697994390        0.4185545420        0.8760032314
  C        12.2620324796        2.6729590912       -0.1367597077
  H        14.0228030337        2.7025567837       16.0501454716
  H        13.3957040742        1.0602924940       16.1870301953
  C        12.4740607655        2.5352792808       17.5194865929
  H         6.5309683477        9.4759078537       16.4762036896
  C         6.4992376484        8.1112774101       17.8635969525
  H        14.1763767396        7.4508727912        5.6930568425
  H        15.0667358963        6.5454503084        4.3956699519
  C        15.5541694917        6.0231128990        6.3217100788
  H         6.6702180485        6.7279119111        3.8873012371
  H         7.5696105520        7.4003256183        2.6382047053
  C         6.4558120815        5.8318304330        1.9037482023
  N        11.6967371211       -0.5504336276        1.8379305404
  C        12.2443452853       -0.1934880928       -0.3041225696
  C        12.3969300751        2.0626054073       -1.4188050719
  H        12.1926223876        3.7178301333       -0.0356314419
  H        11.5865005004        1.8744468181       17.6907734618
  H        11.9969503364        3.5524929107       17.4533043659
  H        13.1221595950        2.4640891659       18.3726612645
  S         6.3248666082        6.5213223445       18.3868354136
  C         6.2905340007        9.1853673579       18.7927761915
  H        15.8276482478        6.7653698802        7.0567493262
  H        15.1688031116        5.1021701502        6.7315147669
  C        16.8945001467        5.7157179081        5.7008394628
  H         6.3584675612        4.7879625314        2.0703393245
  H         6.9308949170        5.9498950358        0.9907209814
  C         5.0474555607        6.5737630012        1.7684722323
  S        11.8295085729       -2.0550881554        1.1779434069
  N        12.2542763998       -1.5962829794       -0.2767313809
  C        12.4581417354        0.5582753384       -1.4843685865
  H        12.5579261563        2.6732014983       -2.2330473725
  C         6.1244994846        7.2431445196       19.9142422649
  N         6.0231242747        8.6223309464       19.9427606218
  O         6.4484350040       10.3785347292       18.6006802765
  H        16.7515694025        5.1148691528        4.8505706430
  H        17.3115466134        6.7196056566        5.5326630881
  C        17.7917790197        4.9633347346        6.6484574235
  H         4.3209349111        6.0409459213        1.0772822518
  H         4.5832065680        6.5710359477        2.7732325658
  C         5.1574900168        7.9962647794        1.1855150664
  C        12.7047916316       -0.2269482946       -2.6733515706
  S         5.3957592184        6.4287546335       21.2824718777
  C         5.8191479454        9.4808474000       21.1488521419
  H        17.1576463441        4.4430007445        7.4027517736
  H        18.1742665646        4.0820911756        6.1391280203
  C        18.9680732637        5.6332737586        7.3197442729
  H         5.6443559132        7.9618887964        0.2201421801
  H         5.8501117425        8.5338003461        1.7486103024
  C         3.9291020239        8.8992159911        1.3411907905
  H        12.3433098867       -1.2529917199       -2.7288363742
  C        13.2171640799        0.1752238079       -3.8426040384
  H         5.2469626184        8.9107384684       21.8098431720
  H         5.2071834838       10.3798579458       20.9253450290
  C         7.2195158000        9.5852383993       21.7850842630
  H        19.2385877494        4.8671327079        8.0601388068
  H        18.6233590496        6.6072123759        7.7871267699
  C        20.0377168696        5.9374057118        6.3203621931
  H         4.2692646942        9.9135972955        1.2667194948
  H         3.2063122574        8.6771070384        0.5610393411
  C         3.1483660124        8.7690225056        2.6972089584
  S        13.6389816230        1.7300356835       -4.3015157032
  C        13.4498606733       -0.8315128902       -4.8976855143
  H         7.2575958660        9.2987143399       22.8878311485
  H         7.8152590841       10.5473236989       21.5371081193
  H         7.7512787671        8.7931805776       21.2055569128
  H        20.6290264803        5.0769416893        6.1150492910
  H        19.5784585951        6.2314550022        5.3654453121
  H        20.8256207694        6.5955525005        6.6908723590
  H         2.4016272009        8.0001953142        2.5830261661
  H         3.7980280427        8.5465782472        3.5733998723
  H         2.6252792432        9.7064471531        2.7900583456
  C        13.9846376920        1.0929838894       -5.8813689045
  N        14.0061245872       -0.2363759625       -5.9127238237
  O        13.3295878110       -2.0400549665       -4.6992936149
  S        14.8279124608        1.9006081095       -7.2185575478
  C        14.3045301388       -0.9335881354       -7.1154703005
  H        14.6423573369       -1.9275391414       -6.7677630561
  H        15.2443945981       -0.4970556523       -7.5379065472
  C        13.0891835834       -1.1131236757       -8.0523260482
  H        12.3855250177       -1.7988288892       -7.6274485940
  H        13.4561966575       -1.3372268936       -9.0970068286
  H        12.5002859353       -0.1691650965       -8.1882561842
