352
 i =    51300, time =    25650.000, E =        98.6312600952
  H        10.2222503102        3.7608394700       32.3837372915
  C        10.2335416638        4.7576126149       32.8911074796
  H         9.4682059772        5.0139958305       33.5642565591
  C        10.2019961304        5.7285586035       31.6644580926
  C        11.5128629066        4.8894602250       33.5861003336
  C        10.1864979516        4.9501214444       30.3524407757
  H         9.2794972500        6.3749848906       31.8118587876
  H        11.0584590992        6.3965452986       31.7683359740
  H        12.3555694077        5.0394683588       32.9314118339
  H        11.3266136536        5.6178850619       34.2864488470
  H        11.5722318852        3.9837877032       34.2385839229
  C        10.0876625512        5.9167256729       29.1296235258
  H         9.3371271079        4.2664592051       30.1827961571
  H        11.1117429057        4.4600076429       30.2078652802
  C        10.5332809262        5.3367503290       27.8269204640
  H         9.0960390791        6.3810771223       29.1857732055
  H        10.7565625341        6.7177910486       29.4040720238
  C         9.4634354357        4.5623338063       27.0009006644
  H        11.3110666287        4.6118572470       28.0649052930
  H        11.0558361481        6.1176969185       27.2694812492
  C         8.4395897718        5.5468326692       26.3937931151
  H         9.8161886835        3.9902835545       26.1993776949
  H         9.0773190214        3.7866942367       27.6785827958
  C         7.2141284318        5.0417479267       25.6381382088
  H         8.1935852401        6.1420961288       27.2144404939
  H         9.0194520633        6.2073954992       25.7252746318
  C         6.7250434213        3.7768954652       26.2823334741
  C         7.5769847813        4.3358148188       24.3432047008
  C         6.0315899955        6.1104896206       25.5677215890
  C         6.9331695490        2.6193633147       25.5174478361
  C         6.1699255034        3.4205847016       27.5220782888
  C         7.4512886028        2.9708190079       24.2797936112
  C         8.0291233809        4.8571861156       23.1470792092
  H         6.3580641580        6.9637067870       24.8693743934
  H         5.7028555793        6.5106762983       26.5479049916
  C         4.8280212251        5.5658669110       24.7908063570
  S         6.5486392314        1.1544655332       26.2199838403
  C         6.0001202517        2.0458581271       27.6050704819
  H         5.9030249052        4.2188804461       28.1806969392
  C         7.7488363542        2.2931190485       23.1317852537
  H         8.1914377587        5.8952886147       23.1121976443
  C         8.4145587229        4.2583077384       22.0635678806
  H         5.1314919286        5.5661752173       23.7356107912
  H         4.5955187705        4.5760641641       24.9539664931
  C         3.5728204242        6.4842338613       24.7540478881
  C         5.4883256318        1.4118144395       28.8613282225
  C         8.2251700493        2.9092195139       21.9492384603
  H         7.6610014631        1.1576981958       23.1457069884
  C         8.8524542697        4.6979694783       20.8143108221
  H         2.8868122280        6.1731571596       23.8525439916
  H         3.9666100157        7.5129060866       24.4819127103
  C         2.6809596669        6.5350467845       26.0427479402
  C         5.5574426461       -0.0049096842       29.1596436932
  C         5.0711759881        2.2407925040       30.0469817030
  C         8.7039195072        2.2841852559       20.6304298770
  C         9.0005687604        3.5821986184       19.9912869310
  S         9.2316325446        6.2773909400       20.1892214811
  H         1.9910554046        7.3192904259       26.0468226551
  H         3.3644437095        6.8573059653       26.7503072678
  C         1.8388046790        5.2280608499       26.1786456223
  N         5.9678418804       -1.0114128337       28.2792709580
  C         5.1516742094       -0.6042680687       30.2801487613
  C         4.7402082966        1.7041780415       31.3146718148
  H         5.0383735027        3.3171734613       29.9662379157
  C         7.5495097708        1.4646716941       19.9155989570
  C        10.0120503201        1.4575381015       20.7043164140
  C         9.4568259793        4.0525841360       18.7194161715
  C         9.5828782916        5.4617107640       18.6464614886
  H         1.2662232898        5.1974813300       25.2345762250
  H         2.4784186199        4.3632417886       26.2971080612
  C         1.0068368279        5.2042399656       27.4492992725
  S         5.7716765732       -2.4841747543       28.9344926221
  N         5.1925770238       -1.9962296140       30.3606362443
  C         4.7549070161        0.1969649898       31.4167777420
  H         4.6114994094        2.3448389766       32.1726894287
  H         7.2156574057        0.7705516149       20.6560628105
  H         8.1159123447        0.9086951603       19.0312595096
  C         6.3301334887        2.1986712167       19.3951896173
  H        10.1461322480        0.6779799453       19.9662746211
  H         9.7879179618        0.8105212209       21.5121421039
  C        11.2438394916        2.2825588654       20.8752619538
  H         9.6201296813        3.2915999422       17.9416071464
  C         9.9118734074        6.2603800373       17.4593488636
  H         0.1680504691        4.5052481260       27.2793836463
  H         0.4439499176        6.1667122063       27.4567689280
  C         1.7186406345        4.9209723487       28.7673219420
  C         4.5250985189       -0.5415814619       32.6591135287
  H         6.5150547576        3.2619723335       19.2825367367
  H         5.5247379437        2.2413705135       20.1694121082
  C         5.9428314349        1.9230365027       17.9824776311
  H        11.1328642221        3.1846925197       21.5344029805
  H        11.5049571523        2.7595958799       19.9324600248
  C        12.4853829016        1.5626313597       21.3199286926
  C         9.9162643944        7.6833498423       17.3974845755
  C        10.1090376386        5.5427222021       16.1765958403
  H         2.0187787556        3.8867948569       28.7691094618
  H         2.6030068273        5.4951309413       28.8737043268
  C         0.8458067640        5.2012107023       29.9700412501
  H         4.5355662535       -1.6040019295       32.7093516807
  C         4.3045829005       -0.0730160589       33.9972195495
  H         6.0632222683        0.8608560010       17.7864026643
  H         6.6949330333        2.2718211410       17.3171725820
  C         4.6245742007        2.4436477824       17.4097930963
  H        12.3077758297        1.3304968046       22.3680424334
  H        12.5631963206        0.6160913173       20.8020113423
  C        13.7169361272        2.4331643071       21.2291677847
  N         9.5466047559        8.5214543227       18.4174247187
  C        10.0579044998        8.3740275959       16.2125743792
  C        10.3167152804        6.2707105852       14.9800817770
  H        10.1228257612        4.4116076036       16.1249252357
  H         1.4712549462        5.6902661999       30.7242688512
  H        -0.0186237166        5.7017430926       29.6619979954
  H         0.5928088429        4.2098070805       30.2823196399
  S         4.1123729984        1.5402551735       34.5358630574
  C         4.2494935408       -1.0774430842       35.0912891672
  H         4.5202184264        3.5008688488       17.5143343581
  H         4.6296656486        2.1634018111       16.3498174676
  C         3.3946808143        1.6560801634       18.0328412443
  H        13.5437987993        3.4176857292       21.7071305811
  H        13.8366897149        2.7206909819       20.1536857183
  C        14.9823616910        1.6878841337       21.6188149424
  S         9.5126460777       10.0297959824       17.8738431814
  N        10.0002000039        9.7345354961       16.3622897782
  C        10.2762146965        7.7181738967       14.9702672074
  H        10.4685480676        5.6567771243       14.0998130043
  C         3.9903663008        0.7960022666       36.1994609726
  N         3.9908049621       -0.5198940158       36.2887395467
  O         4.4335160719       -2.2565310092       34.9087862973
  H         2.4527555331        2.2563109084       18.1463052725
  H         3.6855850149        1.3637704913       19.0301769543
  C         3.1527792782        0.3302829142       17.2586845943
  H        14.8238753499        0.8662384444       22.3053755634
  H        15.6005421569        1.3527050861       20.7177677169
  C        16.0043910415        2.6567168801       22.1654185288
  C        10.4981742739        8.5588413556       13.8384177788
  S         3.7307531809        1.6310099999       37.6782427690
  C         4.0554526607       -1.3840103726       37.4538919509
  H         2.6542063089        0.5503592919       16.3833509584
  H         4.0185614900       -0.2330006689       16.9859465566
  C         2.3152308106       -0.5892691593       18.0854520121
  H        15.5162572584        3.2677782189       22.9028380909
  H        16.3584383143        3.4126024551       21.3934144207
  C        17.2680738128        1.9560743971       22.6550460391
  H        10.2446794696        9.6081159150       13.9394472673
  C        10.8996938147        8.3469139354       12.5425335521
  H         3.2921590276       -1.0572317445       38.1969983790
  H         3.6586793427       -2.3765210088       37.1896264576
  C         5.4877014101       -1.5401198974       37.9595055860
  H         1.3265859604       -0.1724071287       18.1359878761
  H         2.6935211927       -0.6336784257       19.0948462187
  C         2.2699662731       -1.9681344582       17.4569058565
  H        17.5466335403        1.2018976090       21.8996472304
  H        18.0389627500        2.6698883052       22.7146659850
  C        17.1201231550        1.4391986325       24.0899795287
  S        11.3572361106        6.8209123167       11.8290980593
  C        11.1449966312        9.5278725908       11.6115163388
  H         5.5109270419       -2.4122610583       38.5788126612
  H         6.1294058537       -1.8599924520       37.0912434636
  H         5.8785348494       -0.6050155680       38.4276310106
  H         1.6036266318       -2.5868905420       18.0256824009
  H         3.2985199258       -2.5020123625       17.5545781272
  H         1.9338848014       -1.8094984895       16.4139838708
  H        16.1197574414        1.9246862585       24.3538261365
  H        17.7815895693        1.9356622316       24.8255542996
  H        17.1251405714        0.3578582511       24.2794598815
  C        11.8975394423        7.7542196418       10.4151795983
  N        11.6249329465        9.1019690924       10.3924156759
  O        10.6700755539       10.7244846410       11.7866436072
  S        12.3315654814        6.8979961619        8.9015070400
  C        11.6714948554        9.9474095385        9.1901007184
  H        11.8074651063       10.9993266900        9.4987415726
  H        12.5959123467        9.7578436390        8.6178102509
  C        10.3294790306        9.8888644458        8.3902468240
  H         9.5440148525       10.3551360598        8.9393317747
  H        10.4940142988       10.4370104734        7.4484851169
  H        10.1504838234        8.8457852341        8.3232257109
  H         4.1970636612        0.9206229789       12.4303585404
  C         3.5551329231        1.7860994159       12.4442026771
  H         4.1364761318        2.6885574856       12.5206051568
  C         2.8236950031        1.9381730887       11.1501545834
  C         2.7378436885        1.6511287141       13.7827376892
  C         3.7100677948        2.4221673661        9.9942635307
  H         2.0608018840        2.5996416284       11.4128030526
  H         2.4086377337        1.0108582761       10.9477801435
  H         3.3748687865        1.3069293899       14.6162549832
  H         1.8729887775        0.9666574586       13.6776615354
  H         2.3367790166        2.6676629552       13.9368602903
  C         4.7818053009        1.3291523988        9.6171557589
  H         3.0597293964        2.6991193249        9.1880988364
  H         4.2378406092        3.3636168892       10.2532969706
  C         5.5841661259        1.5909398417        8.3952752625
  H         4.2904006509        0.4002583252        9.6024067399
  H         5.4226408037        1.2722015287       10.5303986035
  C         6.6546966866        2.7131399444        8.5388412831
  H         4.8515318231        1.8308249582        7.5617465805
  H         6.2320658729        0.6864987139        7.9968652548
  C         7.9368056124        2.0901556271        8.9631840623
  H         6.6833427750        3.2308506651        7.5532585798
  H         6.1176243398        3.3108888333        9.2869972423
  C         9.0977605221        3.0748443834        9.1184758402
  H         8.3199323182        1.3619637401        8.1594994783
  H         7.7668337779        1.4057266189        9.8365646368
  C         8.6169098394        4.3228841217        9.8641135865
  C         9.3939783637        3.7517778613        7.8904188220
  C        10.2674580545        2.3822556888        9.7850287825
  C         8.7549047450        5.4106652384        9.0472555430
  C         8.2527800026        4.6869328263       11.1529980447
  C         9.2026827769        5.0957260317        7.7977620954
  C         9.7748715618        3.2164889317        6.7135770126
  H        10.0052878167        2.1109715711       10.7876252998
  H        10.5444434964        1.4202062041        9.2745854166
  C        11.4940940579        3.3208981318        9.9213086728
  S         8.2925872387        6.8951830049        9.7822700691
  C         7.9690199276        6.0100581689       11.2518006827
  H         8.3832975463        3.9326795613       11.9247417668
  C         9.4860378817        5.7219697081        6.6015342675
  H         9.8391563099        2.1581072815        6.7858807582
  C        10.0526438845        3.7542222964        5.5260883068
  H        11.1202818603        4.1673854509       10.4576244951
  H        11.8599765094        3.6962510844        8.8891164831
  C        12.6562669322        2.7181368032       10.7794188851
  C         7.5743270853        6.7082421053       12.4774081504
  C         9.9234801066        5.1222299574        5.4394571731
  H         9.2994531833        6.7347437702        6.5573988456
  C        10.4772628783        3.4140241440        4.2863390007
  H        13.4598273927        3.4005104461       10.4960787339
  H        13.0028762028        1.6770000992       10.6111052325
  C        12.3352423556        3.0215023491       12.2728901633
  C         7.4834263207        8.0968033309       12.7014733698
  C         7.2647273054        5.8118549425       13.6464624222
  C        10.2332607531        5.8053088542        4.1496492966
  C        10.5889564128        4.4600979846        3.3686733867
  S        10.7522754677        1.8939688889        3.5533263424
  H        12.8802656913        3.9850387099       12.5538235097
  H        11.2467925210        3.2860265030       12.4614451574
  C        12.7499961697        1.9391809634       13.2879765845
  N         7.6355093299        9.0651795430       11.7358244255
  C         7.1090742096        8.5987049458       13.9304054904
  C         6.8979412180        6.3218668968       14.8191226704
  H         7.3687829514        4.6880921353       13.6670086732
  C        11.4776922597        6.7283166193        4.2676041328
  C         9.1320769424        6.6248476091        3.4600307187
  C        11.0103100758        4.0403759225        2.0779968872
  C        11.0959261136        2.6460007959        2.0414982876
  H        13.8561869605        1.8284931838       13.4057124127
  H        12.3514044283        0.9823763943       13.0704532474
  C        12.1426877328        2.3198136741       14.6793252252
  S         7.5575670723       10.4423329091       12.4356999879
  N         7.0257129890        9.9898402596       13.9352761736
  C         6.8417680970        7.7599421357       15.0214554233
  H         6.6972834834        5.6372847272       15.6598991901
  H        11.1592226050        7.5917212816        4.8472707943
  H        11.6830659899        7.1799143415        3.2962416013
  C        12.7163842942        6.0035870813        4.8566711920
  H         8.8204729125        7.5091898311        4.0962157381
  H         9.4492964366        7.1694414914        2.5496555006
  C         7.9342523858        5.7844861851        3.1332772661
  H        11.2697199109        4.7972297506        1.3070289422
  C        11.4913651496        1.8470663534        0.8166202402
  H        12.0972754702        3.3808404821       14.8155441915
  H        11.1629674852        1.8589612032       14.5059211314
  C        12.6576512374        1.4323042914       15.7907877221
  C         6.5696351837        8.3443964801       16.2794447588
  H        12.5979529869        5.7233724286        5.9005232458
  H        12.8704189657        5.1276452265        4.1649643491
  C        14.0238598936        6.7494440070        4.9027546332
  H         7.4985160827        5.3082730712        4.0306241633
  H         8.3559215819        5.0212916440        2.4551102477
  C         6.8091604685        6.3959157926        2.4396069571
  C        11.5661785728        0.4499448940        0.6503985463
  C        11.6794715551        2.6065957235       -0.4616077199
  H        13.7352840956        1.1705911781       15.6331898303
  H        12.2121979658        0.4569159028       15.8563603662
  C        12.2410593767        1.9144142006       17.1606317073
  H         6.4150488078        9.3287431939       16.1790525076
  C         6.2456190386        7.9640467061       17.5097597932
  H        14.0510108975        7.4898858493        5.6665912048
  H        14.1811362605        7.3614820461        4.0186161444
  C        15.1401372930        5.7609597670        5.0650649109
  H         6.5296562633        7.3243104155        2.9452750261
  H         7.1209528707        6.8058596356        1.4850705764
  C         5.6466625608        5.3942838274        2.2947461070
  N        11.1860106462       -0.4562105287        1.6100661627
  C        11.8424181013       -0.1510470831       -0.5353674009
  C        11.9953007669        1.9458987003       -1.6487299276
  H        11.4257603364        3.6451886524       -0.4855633679
  H        12.1846421612        3.0552751996       17.2065650428
  H        13.0348554071        1.5388990978       17.8708912392
  H        11.2816533050        1.5139931842       17.5391453430
  S         6.0992244539        6.3363999320       18.0124707261
  C         6.1187923263        9.0275632143       18.4940251076
  H        14.9983374489        5.0652636752        5.9028276221
  H        15.4394440726        5.1428429104        4.1778866284
  C        16.4317125490        6.4143590079        5.5628594986
  H         5.3649622810        5.0339290765        3.3003720588
  H         5.9529205378        4.5520078079        1.7324555025
  C         4.4840601646        6.0661025758        1.5984135391
  S        11.4413339656       -1.9771680856        1.0560829059
  N        11.8860528392       -1.5442218044       -0.4041077439
  C        12.1213193427        0.4644282746       -1.7214928543
  H        12.1894767437        2.5250633295       -2.5152855905
  C         5.8469579937        7.0696421813       19.5464369707
  N         5.7863035591        8.4338803781       19.6405142093
  O         6.1900736786       10.2100583858       18.2353422978
  H        17.0374447522        6.5588762662        4.6658489896
  H        16.1965873478        7.3859796707        5.8838009433
  C        17.0593719868        5.6550209363        6.6685172844
  H         4.7068846937        6.6256815114        0.6877940960
  H         3.7006465855        5.4658484136        1.2779988106
  C         3.8557210148        7.0766533241        2.5469187679
  C        12.4627208431       -0.2268431931       -2.8500700912
  S         5.6755166457        6.2321218041       21.0663948394
  C         5.8114812119        9.3098742614       20.8484573915
  H        16.3918660861        5.7272500974        7.5741976012
  H        17.1315275541        4.6028606045        6.3949207268
  C        18.4699305213        6.1770635817        7.1832021863
  H         4.5604250952        7.3869335044        3.3589081487
  H         2.9048927784        6.6408039525        2.8753270271
  C         3.4605067784        8.3357755651        1.9086404449
  H        12.0733725159       -1.2028708117       -2.8790740095
  C        12.9579691057        0.1025156347       -4.0988657685
  H         4.9687455912        9.0968770382       21.4997862916
  H         5.5996683391       10.3045003325       20.5195872051
  C         7.0572875615        9.2323472579       21.6793732888
  H        18.8212890089        5.7543317131        8.0888649771
  H        18.4608245599        7.2071055558        7.2942833149
  C        19.5012968401        5.8423689820        6.0679107059
  H         2.7586112291        8.1329517518        1.1073230109
  H         2.9603236070        8.9452653718        2.6123211120
  C         4.5984085310        9.1099951818        1.3408777371
  S        13.4500796644        1.6213864456       -4.5934414266
  C        12.9936800056       -0.9478472542       -5.1275171851
  H         7.9680745304        9.4297552083       21.1063468129
  H         7.1965994756        8.2564953930       22.1108026637
  H         7.0674276458        9.9186977289       22.5169526765
  H        20.4175326055        5.3884362522        6.4926530514
  H        19.1920626928        5.2577015880        5.2484109577
  H        19.8505948527        6.7223070739        5.5093339808
  H         5.5242270481        8.9455598959        1.8773989397
  H         4.9610563154        9.0439037405        0.3541914501
  H         4.4007064791       10.1283827191        1.6091037850
  C        13.8535260112        0.8191142250       -6.1381065191
  N        13.5064408588       -0.4654123344       -6.2169211320
  O        12.5532992235       -2.1176877923       -5.0215489678
  S        14.4734930130        1.6389392985       -7.5236046662
  C        13.3654939498       -1.1548489607       -7.4958158494
  H        13.4177895271       -2.2958442228       -7.4803209001
  H        14.2429606411       -1.0407694330       -8.1356232087
  C        12.1004955079       -0.7075544269       -8.2279936269
  H        11.3730719869       -0.4173606247       -7.4528572600
  H        11.6502292386       -1.4448933816       -8.8909058046
  H        12.2983346758        0.1433344196       -8.9479525938
