352
 i =    45400, time =    22700.000, E =        98.4646960825
  H        10.9213630644        4.6770144661       31.4099027934
  C        10.5409559142        5.5900532733       31.8331031289
  H         9.5018840554        5.5282231756       31.6161766874
  C        11.0873424984        6.6897864218       30.8518659651
  C        10.8457235388        5.6414370325       33.3444539834
  C        11.4574546594        6.2381905902       29.3695310364
  H        10.3955731156        7.5683436622       30.8061182746
  H        12.0122639098        7.0936742119       31.3306823384
  H        10.5707142788        4.6885837385       33.7782933459
  H        11.8363210033        5.9615344844       33.6486719496
  H        10.1126987099        6.3220950364       33.7682394960
  C        10.1738808288        6.0640753161       28.4044530447
  H        11.7462563817        5.2176280988       29.5647692882
  H        12.2632014297        6.8311366204       28.9440086688
  C        10.6387319731        5.7028976521       26.8963164516
  H         9.6049835241        5.3109793443       28.7495168769
  H         9.6362376094        7.0317160482       28.4357796961
  C         9.5158723755        5.0566143779       26.0092427774
  H        11.4884421611        5.0436227585       26.9052513669
  H        11.0625843942        6.5448179070       26.3336734674
  C         8.3580597554        5.9803733185       25.7657780095
  H         9.9793301413        4.7335149440       25.0828188974
  H         9.2474941209        4.2333205360       26.6613491222
  C         7.2279884631        5.3275423589       24.9793454176
  H         7.9080401551        6.5405446688       26.6282957189
  H         8.7682624029        6.7839535344       25.1122425774
  C         6.8842289704        3.9912222945       25.7296320961
  C         7.7441775815        4.5912768365       23.7803650193
  C         6.0503649496        6.3722822701       24.6463472587
  C         7.0881976637        2.9007618354       24.9151611182
  C         6.4896239921        3.6887369543       27.0238319047
  C         7.7092170239        3.2585435358       23.7072614493
  C         8.1722420553        5.2055666261       22.6188188568
  H         6.3800695055        7.0700881797       23.8838247800
  H         5.9992366624        7.0893048659       25.4783845308
  C         4.6896727631        5.7440938943       24.2138890518
  S         6.6218078739        1.5188830492       25.7244601005
  C         6.3009188939        2.3654073880       27.1550550571
  H         6.4221539032        4.4546413331       27.7836691250
  C         8.0785577408        2.5978969407       22.5897599707
  H         8.2432367837        6.3145380553       22.5970554246
  C         8.6416541780        4.5526288511       21.5675990525
  H         4.5955984828        5.8189782407       23.1639461397
  H         4.6052537144        4.7670128529       24.7819766918
  C         3.4743175115        6.4994073717       24.7550834095
  C         5.9446941563        1.6940072356       28.4070524349
  C         8.5586184471        3.2141894376       21.3968437325
  H         8.1087515928        1.5053642229       22.4952592405
  C         9.0989297225        4.9802963132       20.3346318414
  H         2.5669697878        6.0811078076       24.2616408310
  H         3.5650882511        7.5803365436       24.6748521388
  C         3.2936597045        6.2667328452       26.3075303958
  C         5.8889136917        0.2298914514       28.5700355143
  C         5.6099648500        2.4567203250       29.5796505374
  C         9.0350820832        2.5393727794       20.1312676780
  C         9.3831786034        3.9227540007       19.5394534724
  S         9.4155633219        6.5382968599       19.6888837469
  H         2.6112832964        7.0609306505       26.7017128987
  H         4.2670031315        6.3901399464       26.8433580109
  C         2.5978099750        4.9051570506       26.6229385240
  N         6.0795001688       -0.7566129523       27.5585006676
  C         5.5647196777       -0.3511580251       29.7595124894
  C         5.3123961175        1.8628270228       30.8317532681
  H         5.5483812800        3.5992643766       29.4714184448
  C         7.8505621137        1.7543978202       19.4614791746
  C        10.2781794634        1.6697850647       20.3632200111
  C         9.8236369206        4.3550535107       18.2695646847
  C         9.8227271364        5.7530720355       18.1618522625
  H         2.3781930896        4.1619848907       25.8247315469
  H         3.3601100369        4.3014552904       27.1946550516
  C         1.5655974189        5.0195282598       27.7007833049
  S         6.0314588822       -2.2162040464       28.2899166013
  N         5.6101749943       -1.7310242632       29.7787347103
  C         5.2782502970        0.4122562083       30.9420286269
  H         5.1160782932        2.5306669297       31.6588628745
  H         7.6469684908        0.8590317145       20.1192565810
  H         8.2141317916        1.2701016890       18.5625964821
  C         6.5599270619        2.5296481449       19.1808647711
  H        10.6197197492        1.1598730416       19.4176980709
  H        10.0839320279        0.8916877505       21.0817575696
  C        11.4168448472        2.4358028052       21.0868803595
  H         9.9375458480        3.6515014978       17.4771776287
  C        10.2853580641        6.4799052137       16.8988178360
  H         0.9935221455        4.1077687574       27.8711155959
  H         0.8272425147        5.7792241857       27.4604823049
  C         2.2577961184        5.3034240616       29.1165867436
  C         5.0360518905       -0.3454563759       32.1879885035
  H         6.7724940882        3.3452650768       18.5899111086
  H         6.1779357758        2.8246487895       20.1213486674
  C         5.4953082886        1.6790192052       18.5327885947
  H        11.0378924304        2.9583253192       22.0116770300
  H        11.8378471893        3.2654259441       20.4264590749
  C        12.5547024848        1.5180325318       21.4284135583
  C        10.4279411595        7.8506894308       16.7749770615
  C        10.4923352000        5.6417884794       15.6563271758
  H         3.0667870479        4.6096183744       29.3048149871
  H         2.6413749755        6.2945494589       29.1717805236
  C         1.2172762655        5.3021446905       30.2572248844
  H         5.3741977223       -1.3152816101       32.1767060379
  C         4.7892345367        0.0839919444       33.4612990022
  H         5.0803412387        0.9990279047       19.2379214533
  H         5.8297610754        1.0259008108       17.7257730273
  C         4.3018713366        2.4992211292       18.1563499491
  H        12.1009139323        0.9119399371       22.2670582058
  H        12.7484433461        0.7771186884       20.6407712872
  C        13.7616409090        2.3334304032       21.8902420842
  N        10.0950303950        8.7440188340       17.8621782832
  C        10.6740106972        8.5352233378       15.5833991419
  C        10.7301278500        6.3182334678       14.4703768493
  H        10.4483084065        4.5504778274       15.7163810947
  H         1.7480201554        5.5122487133       31.2035587230
  H         0.4680910564        6.0954160945       30.1911316320
  H         0.7058100515        4.3481951533       30.2903821370
  S         4.5262302463        1.6684031757       34.0509238180
  C         4.8234575827       -0.9379656415       34.5361594508
  H         4.2828575957        3.3924687460       18.7625782920
  H         4.3262305862        2.9135000550       17.0981672997
  C         2.8349610568        1.9324913378       18.3055094274
  H        13.4927614973        3.2017782901       22.4263904078
  H        14.3462298623        2.6769593584       21.0807936000
  C        14.6200974820        1.5137630589       22.8690204544
  S        10.0587036107       10.2867694295       17.2815609340
  N        10.6031614720        9.9081251135       15.7703517242
  C        10.8209401689        7.8599121663       14.3653815649
  H        10.9131026396        5.7710229672       13.5612076662
  C         4.4081624114        0.9640990489       35.6709527099
  N         4.4990046316       -0.3688130330       35.7299958655
  O         4.9595856615       -2.1449901555       34.2899636999
  H         2.1617068995        2.7357405059       17.9759352072
  H         2.4979546335        1.7739028135       19.2710306601
  C         2.7338873822        0.6761991747       17.4393397668
  H        14.0563326780        1.1506385016       23.7639841963
  H        14.8931160943        0.6152519994       22.3184533072
  C        15.9336954219        2.1982872446       23.4497005658
  C        11.1903995693        8.6301434546       13.1856406552
  S         4.0893143449        1.7806238250       37.2173937819
  C         4.5313414198       -1.1167748318       36.9492505241
  H         2.3155668517        0.6549648305       16.4481331070
  H         3.7811827071        0.3995816211       17.3012893098
  C         2.0034414087       -0.5707435544       18.0743328915
  H        16.1257690327        2.0834939770       24.4827305059
  H        15.8329694083        3.2987584560       23.1939243328
  C        17.1574932539        1.6575900601       22.8038428727
  H        10.9969977564        9.6940968872       13.3566360190
  C        11.6214602855        8.3728684442       11.9393515222
  H         3.7297002318       -0.8158044351       37.6793750659
  H         4.1024365332       -2.1232704227       36.5755986737
  C         5.9339965522       -1.0060247312       37.5758077631
  H         0.9266049904       -0.3869787511       18.1112798784
  H         2.2865410890       -0.6107075240       19.1825917985
  C         2.2563014407       -1.9796906150       17.4677981677
  H        17.0926195712        0.5383436442       22.6999636796
  H        17.0908633570        2.1174156370       21.8140371253
  C        18.4706454739        1.9172832298       23.4997597832
  S        12.1998677931        6.8907883956       11.3071604560
  C        11.6575714175        9.4688830596       10.9420152834
  H         6.0737727759       -1.4268461396       38.5462398881
  H         6.7026857651       -1.1683263483       36.8751021759
  H         6.2813694486        0.0123464015       37.7313771904
  H         3.3163957357       -2.3100213147       17.6265395246
  H         2.1736273375       -1.9302716744       16.3683941334
  H         1.6497674714       -2.7278131953       17.8884218935
  H        18.3455326706        2.1040984706       24.5056518928
  H        18.9622949601        2.7051326152       22.9248238968
  H        19.1631845663        1.1031262144       23.4364265284
  C        12.4601030781        7.7065676465        9.7665044221
  N        12.2015936739        9.0078703217        9.8043242210
  O        11.1736748898       10.6093090687       11.1438181616
  S        13.3233855936        7.0808369621        8.3188622373
  C        12.3497776902        9.8668516999        8.6235673553
  H        12.5520377590       10.8384819593        8.9954666511
  H        13.1683416961        9.6439101974        8.0231762955
  C        11.1723109949       10.0325670049        7.7029809665
  H        11.5433866832       10.3266405563        6.7180471009
  H        10.6260913960        9.0891207620        7.5056526802
  H        10.5071852381       10.8392136735        8.0999872897
  H         4.4938404319        1.1665770253       12.5735518772
  C         4.6646335497        2.2215986255       12.6597603592
  H         5.6824445272        2.5394101749       12.3857480621
  C         3.6736993938        2.8941156141       11.6873602867
  C         4.3504526088        2.6129398262       14.1907956193
  C         4.5149898922        3.1201498194       10.4339706028
  H         3.3679780580        3.9058239608       11.9865618907
  H         2.8650639632        2.2043277049       11.5289536952
  H         4.9878299099        2.0529248989       14.9268851656
  H         3.3023092012        2.5764200090       14.4519545017
  H         4.6051127722        3.6271738458       14.2648399628
  C         4.9405229746        1.7617302425        9.8326782173
  H         4.0541312568        3.6813695623        9.6890900892
  H         5.4447642210        3.7386015165       10.6434085748
  C         5.5029935570        1.8592778390        8.3900644942
  H         4.0568693194        1.1744711603        9.7659429385
  H         5.6905598821        1.3417881587       10.4703287022
  C         6.7624413121        2.7590335929        8.2624982581
  H         4.6832705383        2.1187434103        7.6676151628
  H         5.7253122792        0.8188457408        8.0897147781
  C         7.9458432232        2.0386089571        8.9227447636
  H         6.9786819064        3.0983147961        7.2626959175
  H         6.5600489055        3.6287637092        8.8365179720
  C         9.1623483455        2.9319616583        9.0129818436
  H         8.1578643032        1.1439599900        8.2971416391
  H         7.7492299176        1.5630926099        9.8238571813
  C         8.8498765755        4.3337370002        9.6440822845
  C         9.5344857685        3.6910496497        7.6703422259
  C        10.2857944352        2.1928951882        9.8228435268
  C         9.0806722763        5.4542611394        8.8523359507
  C         8.4680703872        4.7294547875       10.9365338574
  C         9.5583561686        5.0392848965        7.6100416062
  C         9.9770449357        3.0729152828        6.4884966711
  H         9.8282719341        1.9595648279       10.8226220282
  H        10.5655693546        1.2722893841        9.3006015525
  C        11.5294480605        3.0511601244        9.9707327689
  S         8.7483138013        6.9039997229        9.6530571100
  C         8.3405010061        6.0672135376       11.0701584181
  H         8.3854759053        3.9212614149       11.6867847920
  C         9.8704547440        5.6242041075        6.3991886626
  H         9.9877599002        1.9747518705        6.5737347474
  C        10.3823782840        3.7040872020        5.3691739753
  H        11.2049699679        4.0421281223       10.1019597951
  H        12.0590809377        3.0359013272        8.9913966489
  C        12.4870056678        2.6465092797       11.0568927912
  C         7.9082578307        6.8237163433       12.3917302260
  C        10.3067379285        5.0021942415        5.2464643557
  H         9.7236748072        6.6755619131        6.3211007295
  C        10.9005281958        3.2542197952        4.1687304776
  H        13.1630079525        3.4576191696       11.2213279903
  H        13.1889976779        1.8138415998       10.8400863274
  C        11.9294180938        2.4564013254       12.4255173992
  C         7.8481221649        8.2103579561       12.5965047466
  C         7.4958229071        5.9446004812       13.4987516679
  C        10.7335601106        5.7094110187        3.9135871453
  C        11.0194243940        4.2955841253        3.2775059537
  S        11.2114385218        1.6958607249        3.4391554351
  H        11.5018516058        3.3912832817       12.7068725385
  H        11.1319347011        1.7231401423       12.3544413601
  C        12.9628559293        2.1731125350       13.5448710665
  N         8.1329742668        9.1437959465       11.6449127166
  C         7.5761933976        8.6990474554       13.8341109262
  C         7.1759889110        6.4767635459       14.7134816834
  H         7.4887216915        4.8502182805       13.4955660597
  C        11.9948101335        6.5214087856        4.1038720668
  C         9.7106348685        6.4229440220        3.1072472370
  C        11.3177401575        3.8391024735        1.9864507604
  C        11.4911554070        2.5093670752        1.9157700582
  H        13.8849767903        2.6781010517       13.3216545867
  H        13.2485812773        1.1297422294       13.4691101799
  C        12.5266838611        2.5859480044       14.9257279330
  S         8.0652951391       10.6709980399       12.4472835932
  N         7.7343392634       10.0870339090       13.8495288724
  C         7.2130202568        7.9569232794       14.9246002939
  H         6.9721444012        5.8086881840       15.4888443950
  H        11.8785397918        7.2903111184        4.8714512391
  H        12.3251178201        7.0901082790        3.2322917336
  C        13.2593237860        5.7111184289        4.5048932656
  H         9.2268918625        7.1825288934        3.7849436544
  H        10.0739795921        7.0709503445        2.2883855680
  C         8.5637564485        5.5037952716        2.6482812138
  H        11.5697187923        4.5666766027        1.2208975078
  C        11.9301140832        1.8022960791        0.6884689306
  H        12.2945383237        3.5970101207       14.9642838659
  H        11.6092248662        2.1208207468       15.1155919095
  C        13.6937899420        2.4018335376       15.9142642410
  C         6.8600949532        8.6027916425       16.1574611938
  H        13.0835040318        5.2832024841        5.5167114477
  H        13.4246621549        4.8680797780        3.8213231980
  C        14.6528992652        6.4387644166        4.7222850863
  H         8.0615477168        5.0826538700        3.4680351941
  H         8.8691743302        4.6639186078        2.0654205984
  C         7.5227119488        6.1747018889        1.6768690110
  C        11.8968626995        0.3943972338        0.5704014309
  C        12.1448516581        2.4794073961       -0.5805622721
  H        14.4050311850        3.1607583465       15.7512732117
  H        14.2133465022        1.4623058634       15.8925334758
  C        13.3590730718        2.6803220044       17.4520725113
  H         6.7280774035        9.6764792077       16.0613156459
  C         6.7409908361        8.1104653934       17.4450075909
  H        14.4070174026        7.2590972421        5.3874226860
  H        15.0925431707        6.8205664836        3.7840136938
  C        15.6766411395        5.6076234363        5.5015295333
  H         7.5699443289        7.2656657145        1.8175810117
  H         7.7143464046        6.0184108047        0.6457533876
  C         6.1269135076        5.7326626804        2.0085513062
  N        11.5714115264       -0.4873888565        1.5826884734
  C        12.2326129980       -0.3269113535       -0.5422535053
  C        12.3911450995        1.7247697075       -1.7594824377
  H        11.9691492987        3.5273360729       -0.7218991792
  H        13.0263260890        1.7891859142       17.9484882514
  H        12.4676881287        3.4622157436       17.4484937423
  H        14.1630480038        3.1446950098       17.9609229755
  S         6.6708582384        6.4915717104       17.9388780874
  C         6.3500779791        9.1282091718       18.4552837299
  H        15.1742672481        5.2082316144        6.3136130876
  H        16.0347740047        4.8442371019        4.8446051711
  C        16.8563091055        6.3184325337        6.1481828762
  H         5.9121350682        5.6458932299        3.0796663184
  H         5.9764044219        4.6700840230        1.6400570520
  C         5.0899261519        6.6573765137        1.4991834612
  S        11.4878021940       -2.0135274078        1.0723818243
  N        12.1727732646       -1.7400973543       -0.3976958480
  C        12.5827677951        0.2828298546       -1.7464710104
  H        12.5037823755        2.2483666033       -2.6818288770
  C         6.2711612174        7.1955871394       19.5387269814
  N         6.0029313189        8.5358849711       19.6093037514
  O         6.3228263539       10.3158416488       18.1823320998
  H        17.4229605919        6.7164228759        5.2792203322
  H        16.5538741427        7.2093998908        6.7521700929
  C        17.8186139182        5.3935919025        6.9691728627
  H         5.5516811565        6.9349476853        0.5557311363
  H         4.2171998283        6.0689877269        1.2548947122
  C         4.6783910010        7.8283579605        2.3581649827
  C        12.8550324444       -0.5604529184       -2.9087706107
  S         5.6644461314        6.2928752098       20.8452175539
  C         5.8782885488        9.3224634635       20.7850364071
  H        17.4257759975        5.0371786604        7.9314195287
  H        17.9698436351        4.5161045279        6.3000198693
  C        19.1553179644        6.1133836330        7.1106583678
  H         5.3842671853        7.9404061695        3.2039408820
  H         3.7270210790        7.5741713707        2.7718040365
  C         4.6054334706        9.1122278834        1.5923154872
  H        12.3945401114       -1.5397892356       -2.8512065903
  C        13.4248396881       -0.2377505634       -4.0969477864
  H         5.2390653322        8.9947258931       21.6033105540
  H         5.3214254199       10.1959165725       20.4551658600
  C         7.3855262721        9.5248753300       21.2606763417
  H        19.5572572037        5.9879982553        8.0949704598
  H        18.9380301024        7.2096623987        7.1640195075
  C        20.0108661788        5.6250260011        5.9563976458
  H         4.2939088740        9.8785228684        2.2775084011
  H         5.5071566460        9.5318126550        1.0476542093
  C         3.4893294308        8.9494288828        0.6252517215
  S        14.1852967748        1.3111387581       -4.5332390615
  C        13.3565643573       -1.1961752317       -5.1767254510
  H         8.1070637397        8.6766661334       21.1989189146
  H         7.3735400109        9.8908608929       22.2850641161
  H         7.8047146506       10.3631856170       20.6791979350
  H        20.2002889572        4.5106740263        6.1283136671
  H        19.5080385699        5.6545581709        5.0082433603
  H        20.9368461193        6.1084338070        5.8764068723
  H         2.6304329017        8.4446641741        0.9991600937
  H         3.1819771188        9.8018252083        0.0112797833
  H         3.8794261674        8.2653931448       -0.1121976231
  C        14.4087133751        0.5327933992       -6.1477815061
  N        13.9551351965       -0.7208515449       -6.2500487114
  O        12.9173774952       -2.3172862636       -5.0430714133
  S        15.1449040866        1.2969168998       -7.5162145449
  C        14.1236534981       -1.6040127242       -7.4118150160
  H        14.1336006128       -2.6607054449       -7.0824211049
  H        15.0666215924       -1.5002595746       -7.8966677994
  C        13.0446270869       -1.2564041851       -8.4221378726
  H        12.9899664795       -0.1991558605       -8.6900608231
  H        12.1589275147       -1.4185131891       -7.8675572133
  H        13.1095425963       -2.0152862256       -9.2760434294
