352
 i =    94300, time =    47150.000, E =       100.0195484353
  H        11.1186178125        7.6118611915       32.4436033640
  C        11.2912037407        6.5752843470       32.6872661789
  H        12.3813772765        6.4338203024       32.7804534050
  C        10.6797332329        5.7595677145       31.6466513546
  C        10.7389321108        6.0230193429       33.9553760676
  C        11.2150190188        6.2484542985       30.2915881089
  H        10.9686363138        4.6695355845       31.8256561106
  H         9.6022096319        5.8056867821       31.6304204169
  H        11.3134419139        6.3631242388       34.8320936731
  H         9.7139539025        6.2468099445       34.0914459280
  H        10.7035510740        4.9405275367       34.0431674755
  C        10.1982313354        6.1245478458       29.1510175171
  H        12.0178017649        5.5761820173       30.1452746745
  H        11.7090907807        7.1886223366       30.3675459494
  C        10.8314768143        5.9833724879       27.8576723186
  H         9.6246108643        5.2157163289       29.3316207137
  H         9.4712529461        6.9387201101       29.1643648625
  C         9.8952231987        5.2459318294       26.8579115074
  H        11.8037189860        5.3894580664       27.9786678873
  H        11.1515165617        6.9359629704       27.5027732031
  C         8.6838637898        6.1810371029       26.4757735623
  H        10.3531914875        5.0779597838       25.8909616196
  H         9.5733385699        4.3061827647       27.3039462199
  C         7.4868664421        5.3811230036       25.7715461387
  H         8.3850632256        6.7700210368       27.3521912126
  H         9.1286447813        6.9620622311       25.8334103029
  C         7.0711867876        4.1392994195       26.4378115228
  C         7.8424737866        4.6136408413       24.5256678433
  C         6.2356151055        6.2699279393       25.5673984361
  C         7.4195176807        3.0292727272       25.7139386442
  C         6.5753101333        3.7548984902       27.7298297471
  C         7.8478561203        3.2754287705       24.4740811880
  C         8.2084403263        5.2052430246       23.3102032639
  H         6.4967941967        7.0967980747       24.9719393403
  H         6.0721663900        6.6654287385       26.5289895662
  C         4.9771816597        5.5083775039       25.0620571724
  S         7.0397995247        1.5415382920       26.5654571762
  C         6.5244593081        2.4041402144       27.9518269967
  H         6.2919904772        4.5145662079       28.4067582932
  C         8.1923587687        2.6174001730       23.3634514750
  H         8.1276688914        6.3147403612       23.3050417931
  C         8.7081704956        4.4560079650       22.2404915075
  H         5.0328096964        5.0582508294       24.0283432020
  H         4.7579006230        4.6767617371       25.7361378519
  C         3.6981612283        6.4858886477       24.9851876344
  C         6.0312263425        1.7321642589       29.2107743400
  C         8.7390828434        3.1095445014       22.1965977118
  H         8.1706728638        1.5905028485       23.4703872107
  C         9.1664179082        4.8385296887       20.9852752525
  H         3.0033497290        6.1304841592       24.2477617739
  H         4.0237631772        7.4257405096       24.5084864026
  C         2.8387073766        6.7825848646       26.1770642723
  C         5.9698456531        0.3415821773       29.3805032413
  C         5.6182747721        2.5380125572       30.3428460072
  C         9.2451743075        2.3898290946       20.9919848528
  C         9.4142488209        3.7231353227       20.1699703530
  S         9.2226207020        6.3427700187       20.1120940885
  H         2.0401051451        7.5285408272       25.9224816799
  H         3.4943740878        7.1623866269       26.9617712016
  C         2.1321011977        5.5349178813       26.8245948890
  N         6.0948117393       -0.5829890339       28.3297506835
  C         5.5580971912       -0.2744595662       30.5644128423
  C         5.3004827979        1.9491225142       31.5699515454
  H         5.3978629858        3.6041131050       30.2407677259
  C         8.0479964770        1.5940131269       20.3915880577
  C        10.4433664489        1.5734415173       21.2778228427
  C         9.7440968401        4.0871596036       18.8665628413
  C         9.7421077507        5.4781541284       18.7087170340
  H         1.2441830147        5.4362928409       26.2847595941
  H         2.7369322704        4.6598020274       26.6442662654
  C         1.7835677734        5.6447095991       28.3009000415
  S         5.9714553556       -2.1002208476       28.9003687671
  N         5.6209572846       -1.6847687451       30.4550574665
  C         5.3101205606        0.4422619523       31.7243095166
  H         4.9523830557        2.5352821531       32.3403848069
  H         7.9521699432        0.7415502805       21.1477220845
  H         8.3296925828        1.1401153596       19.4322277803
  C         6.7507996492        2.3195718470       20.2912030741
  H        10.5642107203        0.7021439127       20.6378615818
  H        10.2264805153        1.2077564217       22.2570951241
  C        11.7006792071        2.3034345797       21.4901912103
  H        10.1266675781        3.3881669097       18.1802735795
  C        10.1417021906        6.1226978155       17.4271238850
  H         0.9793976273        4.9712275840       28.6514202143
  H         1.5577883712        6.7416212916       28.4544211884
  C         2.8529533665        5.1283267690       29.3171607391
  C         5.0069480101       -0.2533752476       32.9035709922
  H         6.8816418335        3.3836761654       20.0491136948
  H         6.2627925027        2.2662978960       21.2739484333
  C         5.7616200705        1.8224289158       19.1782626932
  H        11.6406642485        3.2827466373       22.1094221845
  H        11.9439155793        2.6794873282       20.4803670715
  C        12.9419288158        1.4610236711       21.9604546735
  C        10.2019231730        7.5375712181       17.2466657494
  C        10.2532472820        5.2438014533       16.2244739172
  H         3.0573497990        4.0099466745       29.2505829327
  H         3.8299142123        5.6451829510       29.2216288815
  C         2.4221456925        5.4305640815       30.7543526579
  H         5.4217490888       -1.2599534850       32.7976677455
  C         4.6276330746        0.1210729592       34.1826896998
  H         5.5799703433        0.8384229463       19.4293097806
  H         6.1985341586        1.8511229389       18.1953860524
  C         4.5960848056        2.7433290540       18.9060865635
  H        12.8015305354        0.8383739610       22.9035152770
  H        13.1444263393        0.8092405664       21.1586043803
  C        14.0920673854        2.3723777149       22.2443770986
  N        10.0071245819        8.5706482396       18.2259850367
  C        10.4911405197        8.1140621422       15.9912654318
  C        10.6064618752        5.8028779368       15.0042084826
  H        10.1409313510        4.1817790642       16.1637704358
  H         1.5331802060        4.8489257962       31.0061784784
  H         3.2308520096        5.1761799449       31.4031369192
  H         2.3097268048        6.4865868990       31.0451474718
  S         4.4103364991        1.7432200539       34.7616455700
  C         4.4690987315       -0.9292916952       35.1937483452
  H         4.1065967278        3.2036551690       19.7869037568
  H         5.0434861708        3.5197996996       18.3009294799
  C         3.4787960985        2.0180912146       18.1741468801
  H        13.8138369626        3.3496571202       22.5422384537
  H        14.5229928596        2.5367754410       21.2526973422
  C        15.1732592298        1.8255893246       23.1340694691
  S         9.7729724818        9.9949649688       17.4598511662
  N        10.4043157246        9.5124933924       15.9702572289
  C        10.8129221493        7.3305815452       14.8774311600
  H        10.7251130589        5.0571897749       14.1697954674
  C         4.2384618910        0.9702644239       36.3709048754
  N         4.1828224130       -0.3770827272       36.3971425903
  O         4.7060278367       -2.1047148101       35.0563204026
  H         3.6947415889        1.8605358093       17.1418922483
  H         2.7898409605        2.8975339214       18.1502709689
  C         2.8352683103        0.9095766966       18.9488379140
  H        14.7805586577        1.2789157112       24.0152234713
  H        15.7838469376        1.0236514653       22.7819323321
  C        16.2360804428        2.8227424381       23.5288623833
  C        11.0470230107        8.0542018232       13.6605493342
  S         3.8977689322        2.0182112550       37.7176334855
  C         4.1230186148       -1.0575937475       37.6899906503
  H         3.3144949000        0.8328991509       19.9819652699
  H         1.7563439088        1.1167158705       19.1889532851
  C         2.9539336040       -0.4551751303       18.2367678932
  H        16.4499562556        2.7191363387       24.6138358834
  H        15.8399562400        3.8758880707       23.4487362908
  C        17.5215793451        2.7069000787       22.7688490667
  H        10.8625483419        9.0843885088       13.7248562845
  C        11.6141151949        7.7326575443       12.4571787758
  H         3.5017428134       -0.5712096672       38.4384973523
  H         3.7291272312       -2.0225295256       37.4642426610
  C         5.4967121321       -1.2333353077       38.2412754142
  H         4.0226010805       -0.6628255938       18.2905504156
  H         2.7073692094       -0.2904478994       17.1591208279
  C         2.0044632585       -1.4189298525       18.8996737167
  H        17.3226982514        2.4959769906       21.7349833152
  H        18.0809596588        3.6451339630       22.7172594801
  C        18.4616335988        1.5525804002       23.1274588883
  S        12.1647076722        6.1492356379       12.0181333154
  C        11.7251774836        8.8038406749       11.4475218647
  H         5.7293205973       -2.2672022893       38.1998538734
  H         6.2523465524       -0.6787885879       37.6834423125
  H         5.4367759084       -0.8885402796       39.2450949039
  H         2.3506427436       -1.4654154032       19.8939848502
  H         2.2452510763       -2.3994368782       18.4960188287
  H         0.9506230449       -1.1717729486       18.7244225762
  H        19.4850455164        1.5329454725       22.8025504954
  H        18.0315578309        0.6441432929       22.7285782043
  H        18.4496676672        1.4157404682       24.1961170207
  C        12.5404490033        6.9027637582       10.4974964488
  N        12.2315951137        8.2044855812       10.3751003965
  O        11.2253200664        9.9254895398       11.5828241864
  S        13.1771101502        5.9771652824        9.1846364193
  C        12.2785416271        8.8561554169        9.0143686953
  H        12.0783197710        9.9096905267        9.1988391538
  H        13.2687149459        8.8027781564        8.5240131197
  C        11.1884596378        8.4073039962        8.0648281323
  H        10.6868314125        7.5137013593        8.4693357566
  H        10.5109946071        9.2302070525        7.9908101428
  H        11.5461892916        8.2477703745        7.0485222064
  H         4.6382096156        1.8524954635       12.5187572564
  C         3.7268411210        2.4462098032       12.6795292937
  H         3.9222549799        3.5338903668       12.5275381431
  C         2.7854168855        2.3458365496       11.4607787969
  C         2.9745427449        2.3066187993       13.9877773892
  C         3.5336565476        2.6373296130       10.1711820638
  H         1.9473119712        2.9447177691       11.5644435796
  H         2.3453552301        1.3306547717       11.3184955116
  H         2.0818221078        2.8614856027       14.0406625986
  H         3.6440737435        2.5715714326       14.7892925451
  H         2.6745187330        1.2752654605       14.0876668412
  C         4.6647991160        1.6224623295        9.8147087921
  H         2.7496353752        2.6355164893        9.3758064211
  H         3.8728947882        3.5901027062       10.2981240581
  C         5.3683700187        1.8698402530        8.5043708642
  H         4.3093383088        0.5628306077        9.8406398121
  H         5.2921015439        1.5916945938       10.6525444803
  C         6.6426073419        2.6726224255        8.7127924933
  H         4.7270203915        2.2957890825        7.7517791795
  H         5.7542564595        0.9574595549        8.0737082571
  C         7.7586622658        1.9716437886        9.3996095242
  H         6.8948128771        3.0048170211        7.7051434120
  H         6.3609953277        3.5829858192        9.3062892184
  C         9.0415647341        2.7925544568        9.6033889483
  H         7.9198213771        1.0840377729        8.7975588290
  H         7.4358117632        1.5440097088       10.3831244054
  C         8.8058547152        4.0740572800       10.3626631780
  C         9.4793526277        3.4864670869        8.3341809842
  C        10.1888692630        2.0036572612       10.2944086832
  C         8.9922572345        5.1651181354        9.4876393604
  C         8.3984910050        4.4620895703       11.6246925346
  C         9.4657981995        4.8421073782        8.2333764989
  C         9.9179133759        2.9059494523        7.1286618486
  H         9.9002525360        1.4209169891       11.1575289071
  H        10.5007810877        1.2052259221        9.6148900929
  C        11.4593299797        2.7832640519       10.7505237348
  S         8.5379511841        6.6481574133       10.2206012901
  C         8.2054607145        5.8415990653       11.6803852230
  H         8.2501667873        3.6643774344       12.3443499268
  C         9.7918425970        5.4918189372        7.0464817684
  H         9.9825383507        1.8570997213        7.1519146196
  C        10.1812917222        3.5059186668        5.9218697180
  H        11.1121637458        3.5276828900       11.4612664355
  H        11.6993546639        3.4070581428        9.9371082625
  C        12.7043664200        2.0533534542       11.4157584149
  C         7.5651158753        6.6056563193       12.8179981992
  C        10.2007039306        4.8875349185        5.8601732663
  H         9.7143365603        6.5258066127        7.0017218389
  C        10.6142715113        3.1762137501        4.6090055418
  H        13.5855329443        2.5184332218       11.0049383096
  H        12.7712651020        0.9651355280       11.2500534325
  C        13.0641960842        2.1589950087       12.8795909303
  C         7.6188494114        8.0231161865       13.0696042929
  C         7.0125614747        5.7849981937       13.9157334065
  C        10.5417058117        5.5622822015        4.5899985902
  C        10.7947334925        4.2741178157        3.7809440803
  S        10.9264509724        1.7329279159        3.7912640143
  H        13.9648859409        1.6314486753       13.1141652205
  H        13.3311285295        3.2059133777       13.1075685168
  C        11.9434297815        1.7180856195       13.7381942903
  N         7.9625971239        8.9598867487       12.1177963816
  C         7.3153564094        8.5972184244       14.2591445014
  C         6.8124367216        6.3772114012       15.1927057922
  H         6.8326029441        4.7812894561       13.7217946640
  C        11.8994546886        6.2991807749        4.6990555294
  C         9.3765563125        6.3714000743        3.9976587666
  C        11.1774210671        3.9205961523        2.5077831474
  C        11.2378160836        2.5650645689        2.3673488638
  H        11.9789814311        0.6144681777       13.9621584737
  H        10.9892697645        1.9590188447       13.2049953073
  C        11.8381879711        2.2213444154       15.2287190496
  S         7.7998334476       10.4392414248       12.7067262676
  N         7.3069439248        9.9783221011       14.2054183911
  C         7.0047315393        7.8074348285       15.4019207801
  H         6.4292148212        5.6990544841       15.9634358934
  H        11.7542579982        7.1390068415        5.2796588496
  H        12.1510402622        6.6872229387        3.6988789035
  C        13.1155307998        5.4633968775        5.1288001842
  H         9.0772452164        7.0486773175        4.7781587639
  H         9.7111984592        6.9528776379        3.1607897646
  C         8.1633965221        5.5840161141        3.5193552414
  H        11.1553670443        4.6934933207        1.7748890771
  C        11.6129911938        1.8625787154        1.1518633955
  H        11.7854207624        3.2298528192       15.2369049297
  H        10.8722477748        1.8573082076       15.5389902374
  C        12.9470789064        1.6696143388       16.1072318434
  C         6.7895847980        8.4353125345       16.6678890418
  H        12.7434186072        4.7543437447        5.8102908744
  H        13.6506421992        5.0099436411        4.2702115477
  C        14.2799185511        6.3088132046        5.6284772106
  H         7.8073262372        4.9910120792        4.3571506018
  H         8.4180548029        4.9493170853        2.7290745914
  C         7.1048579162        6.5450315299        3.0467603712
  C        11.8494685747        0.4663832147        1.0242173892
  C        11.7785464695        2.5912658730       -0.1188002918
  H        13.9052985292        1.7306882272       15.6219267440
  H        12.7659230545        0.6103568906       16.1184600565
  C        12.8809263057        2.2649425763       17.4778090242
  H         7.1181490414        9.4670496544       16.6724089416
  C         6.4903942699        7.9063958982       17.9047600985
  H        13.8574804857        6.9227881959        6.4326364048
  H        14.5159462170        6.9385947362        4.7447648915
  C        15.4749315683        5.4949528992        6.0685034712
  H         6.5999777133        6.9524182713        3.9837655881
  H         7.5383886869        7.3809606955        2.5016944315
  C         6.1814044478        5.7504991673        2.1424074202
  N        11.7452666714       -0.4674028264        2.0653660757
  C        12.1953600794       -0.1510497236       -0.1893481986
  C        12.2110155675        1.9639095360       -1.3047238721
  H        11.7523531881        3.6459792409        0.0153924911
  H        11.8597505319        1.9830098823       17.9419514237
  H        12.8987149671        3.3563024937       17.3564460723
  H        13.6721900296        1.9310448057       18.1133821405
  S         6.0911749336        6.3141763407       18.3703280065
  C         6.2939071990        8.9076570392       18.9929694671
  H        15.0964671253        4.8701809971        6.8633818866
  H        15.8612890434        4.7795616908        5.2564004726
  C        16.6676855513        6.1951490375        6.6646618765
  H         6.1012938995        4.7483311678        2.7167121033
  H         6.6734049681        5.5043036145        1.2207623415
  C         4.8522722107        6.5293453321        1.9003497987
  S        11.9468518742       -1.9270779601        1.4324235338
  N        12.4116558320       -1.5283818830       -0.0568141067
  C        12.4123814948        0.4832991955       -1.4187764981
  H        12.4270083125        2.5733293993       -2.0988193497
  C         5.9322319386        6.9815028987       19.9792027305
  N         5.8707021496        8.3133467405       20.1417720389
  O         6.4293725754       10.1470472595       18.7546473431
  H        17.2192825236        6.7989042360        6.0195812361
  H        16.4132550415        6.8496053074        7.4313989541
  C        17.6295689989        5.2216359048        7.3123915776
  H         4.0795823596        5.7244307515        1.9398055730
  H         4.7580666342        7.3206969294        2.6356807367
  C         4.8507243718        7.2536337784        0.5456870693
  C        12.7676923451       -0.3144724557       -2.5389535192
  S         5.4804407140        6.0925333529       21.3979113228
  C         5.9922666737        9.0748295888       21.3630632208
  H        17.3239398679        4.8508831377        8.3018224228
  H        17.8018011898        4.3224094013        6.7123087569
  C        19.0257458632        5.8853183960        7.5026199121
  H         4.8012867342        6.5415644086       -0.2907183227
  H         5.7611452646        7.7560632840        0.3384874139
  C         3.7780265537        8.3528087973        0.2759242359
  H        12.4516559925       -1.3069671174       -2.5060354786
  C        13.3420013005       -0.0331144515       -3.7460649604
  H         5.2343574433        8.8936389978       22.1197613593
  H         5.7164736821       10.1467911957       21.1875510958
  C         7.3834812686        8.9189880892       22.0076762801
  H        19.3482037622        5.6892787384        8.5368716401
  H        18.9308123607        6.9170556479        7.5389585269
  C        20.0862264968        5.5791191232        6.3639462904
  H         3.6460953456        8.6040282077       -0.7696100783
  H         2.7582075855        8.0303953172        0.5330644277
  C         4.0256652878        9.6519042511        1.0525057674
  S        13.9041579910        1.5640707235       -4.1279597460
  C        13.4891277172       -1.0853469898       -4.7596068078
  H         7.7889393026        7.9544992596       22.1907234614
  H         7.6216606221        9.2852321499       23.0545558709
  H         8.0993639408        9.4003185639       21.3145365249
  H        20.4213583579        4.5458879199        6.5088872907
  H        19.6772294616        5.6737754363        5.3642017554
  H        21.0003377695        6.1350861714        6.4561099638
  H         4.9757223095       10.0071813729        0.7556335607
  H         3.2887935028       10.3952147865        0.7242567271
  H         3.9750185614        9.5191571486        2.1136268898
  C        14.3087078694        0.8061200572       -5.6304436131
  N        14.0550930447       -0.5156728598       -5.7735294362
  O        13.0465013297       -2.2376762222       -4.6423695685
  S        14.7698073455        1.6595523426       -7.0068595332
  C        14.3248157019       -1.2485188570       -6.9536577943
  H        14.6318875780       -2.2429693473       -6.6931814850
  H        15.1930818445       -0.8635895370       -7.5570049941
  C        12.9779485892       -1.2246061071       -7.8250278209
  H        12.1006446903       -1.6475907609       -7.3180187423
  H        13.0191972055       -1.9697337833       -8.6520897102
  H        12.6873963975       -0.3427777059       -8.2819624628
