352
 i =    50900, time =    25450.000, E =        98.8418489286
  H         9.8665859399        4.3966546003       32.7540516585
  C        10.4667311311        5.3023846239       32.9106339102
  H         9.9835782897        6.0147329004       33.5641511580
  C        10.6911951582        6.0153072074       31.5700100231
  C        11.7035415450        4.9203690762       33.7172582884
  C        10.5701340463        5.1755360773       30.3456300270
  H         9.9476286237        6.8811653040       31.5527714667
  H        11.6595330247        6.5212521905       31.5683111846
  H        12.5913862271        4.7399482508       33.1716395247
  H        12.0088660089        5.6788964027       34.4167676445
  H        11.5667820808        3.9855167624       34.3362622280
  C        10.4524215953        5.9923304375       29.0340021514
  H         9.4935034247        4.7457578048       30.4695685399
  H        11.4270316920        4.4397318011       30.3509982379
  C        10.6865487285        5.2279696515       27.7062988881
  H         9.4465011857        6.4414415377       29.0356515858
  H        11.1557812633        6.7983167393       29.1553888706
  C         9.4696218072        4.5378002348       27.0369078761
  H        11.4546666455        4.4605448230       27.7448827558
  H        10.9699476504        5.9833653103       26.9609433972
  C         8.4417639050        5.5654933331       26.4544935426
  H         9.7026499922        3.7936867090       26.3338764360
  H         9.0049835515        3.9350512804       27.8341600236
  C         7.2550944932        4.9987525439       25.6571240612
  H         8.0542327109        6.0749300502       27.2971257454
  H         8.9761707030        6.3470852518       25.8747285677
  C         6.7658515676        3.6497842487       26.2500454208
  C         7.6723857215        4.2868307884       24.4603800966
  C         6.0869435084        6.0933555748       25.5563958986
  C         6.9958451197        2.5218665882       25.4658030859
  C         6.2386391830        3.3045741465       27.5090254516
  C         7.6114354314        2.9309658026       24.3193341494
  C         8.1416847630        4.9623826620       23.3181586178
  H         6.5684562650        6.8574085568       24.9704563889
  H         5.8211323806        6.4163485080       26.4945525924
  C         4.8877628352        5.4743860804       24.7630721469
  S         6.4123124012        1.0531150883       26.1566060380
  C         6.0124151449        1.9895096185       27.5632195398
  H         6.0911726362        4.0462662318       28.2905278772
  C         7.9900384272        2.2555979167       23.1462201811
  H         8.2602219281        6.0599833998       23.2483189908
  C         8.5366000376        4.3464286160       22.1318504291
  H         5.1298325115        5.3493977026       23.7057609028
  H         4.6642801758        4.5373296746       25.1563154753
  C         3.7237986234        6.5137658997       24.6811977860
  C         5.4894292775        1.2743684584       28.8159414199
  C         8.4839051377        2.9528410664       22.0271368210
  H         7.9571521731        1.2339646368       23.2038705089
  C         8.8683556560        4.7421457334       20.8827391057
  H         3.1318290088        6.2081107842       23.8946094912
  H         4.1091094221        7.4316754135       24.4580610535
  C         2.8977355393        6.6132567491       25.9229406778
  C         5.6005256829       -0.1071141166       29.0817469461
  C         5.1174404891        2.1644751756       29.9972837993
  C         8.8652218834        2.2778820121       20.7911074575
  C         9.1283181269        3.6508512403       20.1005907612
  S         9.2205882598        6.2458660943       20.1159359980
  H         1.8804887876        7.0518085112       25.6227698821
  H         3.3967962192        7.3816911490       26.6073667550
  C         2.5753741958        5.3490986310       26.5863557094
  N         6.0408543885       -1.1091619053       28.1546703509
  C         5.4147368995       -0.6333533562       30.3484498356
  C         4.8947556131        1.6063899575       31.2207848876
  H         4.8820011093        3.2422977574       29.8243180632
  C         7.7137562962        1.3798350696       20.1223192143
  C        10.2211824773        1.5353653441       20.9216913412
  C         9.4134662520        4.0450550840       18.7542073867
  C         9.5470516179        5.3980774367       18.6820551227
  H         1.9669309820        4.7060687362       25.8912941135
  H         3.3738377286        4.7416805734       26.9764618819
  C         1.6126312317        5.4740971572       27.7880788529
  S         5.8368175647       -2.5840161179       28.7845656523
  N         5.4944989225       -2.0206916886       30.3131735979
  C         5.1542631238        0.1591997736       31.4957736980
  H         4.6581489580        2.3395731518       31.9915886180
  H         7.8108797698        0.5276786567       20.6193689821
  H         7.9805668958        1.0853428758       19.1063555669
  C         6.3129437515        1.9508521478       20.2068024962
  H        10.4663572537        1.0827379798       20.0211628867
  H        10.2194488367        0.5870249496       21.4546268485
  C        11.3590578758        2.3147997521       21.5472977593
  H         9.5638586716        3.3289601039       17.9850518381
  C         9.8593807278        6.2656401701       17.4200675993
  H         0.8821256102        4.6861767969       27.7443329641
  H         0.9709983523        6.3560774331       27.9913658877
  C         2.3333097314        5.1358193017       29.0600052412
  C         4.9587839219       -0.4314806426       32.7833196544
  H         6.2722954438        2.9737300347       20.6514804329
  H         5.7494820793        1.2627325202       20.8674336433
  C         5.5790050030        1.9612784058       18.7924461069
  H        11.0040064637        2.5348536085       22.5590021518
  H        11.5417217278        3.3051214829       21.1499816160
  C        12.6961181672        1.5673985229       21.4683405461
  C         9.9631212578        7.6680319052       17.3341943476
  C        10.0487336520        5.5273184288       16.0711218358
  H         2.8362872282        4.1653902225       28.9126735550
  H         3.1257335101        5.8488254571       29.3591025648
  C         1.4605757118        5.2688451825       30.3461107170
  H         5.2032489589       -1.5013909865       32.7345178912
  C         4.6974389712       -0.0377760714       34.0602262490
  H         5.8407554431        0.9919297645       18.3490718386
  H         6.1051402290        2.6747626583       18.1620290627
  C         4.1308623256        2.3837867811       18.8180580831
  H        12.7922379716        0.6097706160       21.9734094066
  H        12.7823675941        1.3697471083       20.4053081821
  C        13.8821086658        2.3844393557       21.9504618944
  N         9.7895146556        8.5852533421       18.4028726918
  C        10.2879019344        8.3054607883       16.1397794605
  C        10.3136233800        6.1779431104       14.8977705344
  H        10.0022054396        4.4420674388       16.2524828899
  H         2.0214802172        5.1000052876       31.3018616923
  H         1.0604658949        6.2623417767       30.3182222306
  H         0.5735488933        4.6080494279       30.3359299592
  S         4.2459656928        1.5156820025       34.4687469718
  C         4.6734508992       -1.0320844695       35.1151437792
  H         3.9953320107        2.9358957891       19.7143632570
  H         3.8695532144        3.0116500687       17.9483018507
  C         3.0742261546        1.3134477920       19.0514775989
  H        13.6370667352        2.8542042843       22.8611873738
  H        14.1496196268        3.1950917166       21.3151070646
  C        15.0673529925        1.4857740038       22.1984869286
  S         9.9728713849       10.0936171936       17.8093671624
  N        10.2632445242        9.7356679349       16.2677369783
  C        10.5011466644        7.6568243122       14.8578732291
  H        10.3025537978        5.5894298165       13.9816777118
  C         3.9987954326        0.8569151178       36.1021974364
  N         4.1758709249       -0.4930648646       36.2271258007
  O         4.9005797889       -2.2370371845       34.8524754864
  H         2.0921292341        1.7954128225       19.2697141747
  H         3.3273890536        0.6824044797       19.9048572163
  C         2.8673664787        0.4097974550       17.8235623535
  H        14.8735250034        0.9632991463       23.1027606435
  H        15.1367145537        0.7567143936       21.3452587536
  C        16.3156975705        2.2829134068       21.9290844755
  C        10.6569919095        8.4533576995       13.6305311666
  S         3.7131722779        1.8120884896       37.5608726428
  C         4.0975078762       -1.2885219368       37.4433912175
  H         2.6834686922        1.0675621733       16.9787703965
  H         3.8051925550       -0.1645609760       17.5634423053
  C         1.8057587443       -0.6531479444       18.0154338007
  H        16.3638570958        3.2041663993       22.4824526585
  H        16.3639130031        2.6558298034       20.8580902133
  C        17.5279384273        1.5470648610       22.3554622508
  H        10.5220991008        9.4788469111       13.8000556677
  C        11.0132824187        8.2289168025       12.3001777392
  H         3.3327003726       -0.8392433586       38.1178227868
  H         3.8666786891       -2.3358291887       37.1479670602
  C         5.3028011044       -1.2614629085       38.2269141540
  H         0.7803312316       -0.2017122434       18.1308497487
  H         1.9041806092       -1.2345653376       18.9555033258
  C         1.8374072503       -1.5512289133       16.8154071393
  H        17.5770180768        0.5806806276       21.8897139780
  H        18.2568943957        2.1076511793       21.8733974127
  C        17.6187664546        1.6116710526       23.8766660202
  S        11.1675985851        6.6730682846       11.6058812142
  C        11.0829030965        9.4548218210       11.5205327453
  H         5.3782610487       -0.3062580627       38.7451158891
  H         5.4207067853       -2.0789099461       38.9864330012
  H         6.0951655420       -1.3646981052       37.4757615104
  H         1.1044907242       -2.2473318064       16.8819649598
  H         2.8748984730       -2.0182303368       16.7346420997
  H         1.6325556873       -0.9132247512       16.0291972506
  H        17.4774087751        2.6235823488       24.1971662445
  H        18.5903655022        1.2289619380       24.2257109223
  H        16.8550118506        0.9679893131       24.2364049965
  C        11.5369217824        7.6575962420       10.1783953636
  N        11.3320021528        8.9778445257       10.2932420365
  O        10.9348822300       10.6172000029       11.8886611100
  S        12.1432618173        7.0971834936        8.6634534886
  C        11.5466241747        9.8665373631        9.1569850188
  H        11.6159210477       10.8484006940        9.5116477714
  H        12.4394424100        9.7674080046        8.6557333096
  C        10.4358482232        9.8321782204        8.1600760606
  H         9.4676345742        9.7148012161        8.5861728341
  H        10.2772151082       10.7998291411        7.6948213622
  H        10.5325353026        9.0258710881        7.4553657702
  H         4.0139759760        0.7025772243       12.5857120431
  C         3.8150263265        1.7648667131       12.8412848458
  H         4.7758798574        2.2813712580       12.8586269180
  C         3.0607591574        2.3820241479       11.6518799378
  C         3.1354390477        1.9442729886       14.2375680893
  C         3.9142637263        2.7391378964       10.4561081778
  H         2.5624186543        3.3648499683       11.9952874686
  H         2.2236441619        1.6987637529       11.3209925858
  H         3.6834303839        2.5010095808       14.9835944820
  H         3.0029838440        1.0048239277       14.7289093353
  H         2.1597049118        2.3923382720       14.1295372198
  C         4.5695101294        1.4705202898        9.8197613622
  H         3.3092265044        3.3219102958        9.7406299754
  H         4.8012473237        3.3621819889       10.7382552854
  C         5.1318692479        1.6048378279        8.3974354274
  H         3.7735653983        0.7695483648        9.6534424497
  H         5.3281797518        0.8484110905       10.4289946889
  C         6.2860848207        2.5650456008        8.3000778224
  H         4.4812485893        1.9675190887        7.6977752282
  H         5.4326012278        0.6021239345        7.9890302939
  C         7.4494496768        2.0062173871        9.0311253467
  H         6.4152963093        2.6136781921        7.1802980658
  H         5.8313680698        3.4887705038        8.7651486463
  C         8.7127280481        2.9688755546        9.0230473587
  H         7.7712806686        1.0824372204        8.5336564059
  H         7.2147914821        1.8160593967       10.0720477237
  C         8.3385916325        4.3092602076        9.6727753734
  C         9.0062659102        3.6769506543        7.7163449447
  C         9.9291875848        2.4108519721        9.7860362559
  C         8.5262539498        5.4044849430        8.7991381352
  C         8.0043260229        4.6564789771       10.9696506974
  C         8.9698200217        5.0538708911        7.5823525648
  C         9.5399161953        3.0741241279        6.6648539784
  H         9.5694117492        2.0974486073       10.7242569564
  H        10.0619410019        1.4140936911        9.3138672205
  C        11.2016547991        3.3431137321        9.9303050514
  S         8.0704856713        6.8708043454        9.5101103762
  C         7.8250956047        5.9970317334       11.0241640254
  H         7.9275540721        3.9242388602       11.7679951735
  C         9.4180442292        5.6279827179        6.4429645549
  H         9.6301004381        1.9998668896        6.7371824877
  C         9.9069644990        3.6451416437        5.4845545951
  H        10.9434899966        4.2535224945       10.2745573225
  H        11.7296797239        3.5970976092        9.0183574858
  C        12.1741610597        2.7385050644       10.9061020387
  C         7.5325339610        6.7024278551       12.3754302076
  C         9.8536067328        5.0246134766        5.3129970397
  H         9.4687538874        6.7501559505        6.4305627565
  C        10.3320879111        3.2739275961        4.2402282013
  H        13.1803973461        3.1594387332       10.7359943175
  H        12.3652297442        1.6415138143       10.8367378578
  C        11.8345794661        3.1632352054       12.4241828789
  C         7.4841173851        8.0744807977       12.6777144445
  C         7.2126626064        5.8519851496       13.5161245411
  C        10.2320153445        5.6892536813        4.0486577975
  C        10.5548123805        4.3607772952        3.3875632657
  S        10.5653207889        1.7494634852        3.4508149619
  H        12.7061803435        3.7784053026       12.5844156800
  H        10.9812305181        3.8315156267       12.6245765305
  C        11.7914531310        1.9571945593       13.3139044112
  N         7.7524028278        9.0289361089       11.7019873336
  C         7.2653653120        8.6359800130       13.9243855498
  C         6.9821979633        6.3428509865       14.7506725578
  H         7.0163585538        4.8285560016       13.4993040319
  C        11.5049378560        6.6460861085        4.2320586326
  C         9.1083563958        6.4824915736        3.3236797025
  C        10.9277750633        3.9901034710        2.0555325608
  C        10.9683289307        2.5938846537        1.9781935910
  H        12.6237704664        1.2229219804       13.1531715539
  H        10.8755777064        1.4385831252       13.1329326138
  C        11.8411243026        2.4832593701       14.8066564192
  S         7.5796638017       10.4924678906       12.3931810565
  N         7.2720743326       10.0264785871       13.9203540917
  C         6.9560294475        7.7779474026       14.9917976563
  H         6.7027141596        5.6155981455       15.4966984420
  H        11.4183540564        7.2395695464        5.1533550324
  H        11.4460912018        7.3176237264        3.4072015133
  C        12.7879249717        5.9120256763        4.4286350302
  H         8.7367907959        7.3323056161        3.9525638903
  H         9.6546952311        6.8848323526        2.4719524791
  C         7.9402963298        5.7471851212        2.7967827188
  H        11.1629684029        4.7389934802        1.3140171468
  C        11.4999013375        1.8224329196        0.7994508615
  H        11.8789092789        3.5569888135       14.7584135762
  H        11.0876093110        1.9623529839       15.4379962771
  C        13.1304365345        2.0376034116       15.5871448070
  C         6.7882105783        8.4247444843       16.1929289098
  H        12.6053084328        5.1713955834        5.1984683150
  H        12.9773127696        5.4162485738        3.5028560320
  C        14.0023200549        6.7628326609        4.8515497420
  H         7.4809837284        5.1970730772        3.6177478312
  H         8.1950628421        5.0433924037        1.9913690527
  C         6.9215730536        6.6315026763        2.3623707356
  C        11.5737558867        0.3936491654        0.5996084137
  C        11.8481313453        2.5659302208       -0.4526674017
  H        14.0673208614        2.1669587434       14.9998509757
  H        12.8873522267        1.0102930896       15.7901869882
  C        13.4331295449        2.6254888048       16.9793843427
  H         7.2268025225        9.4211271080       16.1861738560
  C         6.4575260865        7.9691675694       17.4366417068
  H        13.6855034045        7.4790522836        5.6122884678
  H        14.4152357740        7.3655083080        4.0599245893
  C        15.0683419052        5.8300292952        5.4073939949
  H         6.4138027415        7.4190764497        2.9438321174
  H         7.2512192771        7.1002200845        1.4461287281
  C         5.7773398843        5.6462514498        1.9961006435
  N        11.2364193165       -0.5293621170        1.5175302921
  C        11.9955837172       -0.2154637485       -0.6175430076
  C        12.2554630010        1.9721435059       -1.6445802395
  H        11.8468493770        3.6568122704       -0.4426353022
  H        13.9979818309        3.5311256491       16.9863455367
  H        13.9689858501        1.8089251173       17.4108421711
  H        12.5955527312        2.7660772792       17.5482070267
  S         6.0125999622        6.3961666854       17.8670802484
  C         6.5007282025        9.0261153443       18.5471648346
  H        14.7229759517        4.9687976611        5.9917273103
  H        15.7916408544        5.5797202833        4.6319323306
  C        15.8780707445        6.6041142798        6.4764166796
  H         5.0925973836        5.4960768182        2.8334504756
  H         6.1780888024        4.7358618996        1.5115150630
  C         5.0016572992        6.2650256128        0.8418308122
  S        11.3544865567       -2.0229212005        0.9110137602
  N        11.9408141229       -1.5991634887       -0.5618292885
  C        12.3722151036        0.5016876314       -1.7688104217
  H        12.4568750114        2.6597993189       -2.5109149238
  C         5.9613858887        7.1417856775       19.5496463719
  N         6.1677167488        8.4527232944       19.7298341930
  O         6.7550221512       10.2326521581       18.3079421182
  H        16.4828613073        7.4458447125        5.9976890859
  H        15.1744068280        6.9924136652        7.2232519322
  C        16.8769668985        5.5645999299        7.0692434578
  H         5.8082092186        6.5747623073        0.0753212014
  H         4.5397881829        5.3917783782        0.3475913675
  C         4.1222303604        7.3764163691        1.2708877561
  C        12.6140720501       -0.3059431308       -2.9390073790
  S         5.6584077437        6.2432150016       20.9517230109
  C         6.2304171472        9.1015057162       20.9624983935
  H        16.6005902019        5.2910260747        8.1529559050
  H        16.7865365360        4.6088379033        6.5018022908
  C        18.3645571859        6.0496976935        6.9944688440
  H         4.4155644962        7.8324963282        2.2071460825
  H         3.2332186049        6.9679224000        1.6895516430
  C         3.7978331460        8.3002698953        0.1685388906
  H        12.3995257344       -1.3525736478       -2.8719854867
  C        13.1191993902        0.0645874199       -4.1802838163
  H         5.7500131206        8.6542120286       21.8804632180
  H         5.8878762050       10.1360266276       20.9210578664
  C         7.7006360323        9.0125534541       21.5021338642
  H        18.9802151085        5.6163686776        7.8590008976
  H        18.3495465376        7.1486108165        7.1737710080
  C        19.1006008589        5.7266583484        5.6390513292
  H         3.6203914521        7.8228157371       -0.7840360395
  H         2.9406101199        8.8363920762        0.3961972941
  C         4.8490198872        9.3840974750        0.0658300723
  S        13.5656731565        1.5892651928       -4.7496752085
  C        13.2249665272       -0.9744650535       -5.2230137920
  H         8.3867251534        8.9534306089       20.6241748421
  H         7.8319538745        8.1324468166       22.1270675901
  H         8.0662493641        9.8909148831       22.0832242380
  H        19.7950406084        6.5866634491        5.3425956677
  H        19.7434903985        4.8932198519        5.8324744063
  H        18.4817561212        5.3177390357        4.8576397000
  H         4.7229521743       10.0801589904       -0.7652969786
  H         4.7974285299        9.9687020712        0.9516425691
  H         5.7936208255        8.9081721995       -0.1455120682
  C        14.0390702550        0.8508202247       -6.1874460874
  N        13.7854042234       -0.4510911872       -6.3185484581
  O        13.0498626780       -2.1470565985       -5.0417451592
  S        14.2338025819        1.7958319878       -7.6578198152
  C        14.0134270611       -1.1738201135       -7.5500085635
  H        14.0829883194       -2.2571286608       -7.2030946639
  H        14.9351864847       -0.8221716111       -8.0289043858
  C        12.8538160164       -0.9878171360       -8.5466423011
  H        12.1688810206       -0.1727627275       -8.3166568950
  H        12.2682365520       -1.8356313364       -8.7904025298
  H        13.2271008921       -0.7993051653       -9.5824375315
