352
 i =    82500, time =    41250.000, E =        99.8526647894
  H        11.6749439712        6.9812166875       32.7607113682
  C        11.5896304182        5.8598820854       32.6389242185
  H        12.5590138100        5.3693506617       32.4114850335
  C        10.6912295902        5.5642483638       31.5014028519
  C        11.1503793692        5.1642846873       33.9005247222
  C        11.3130912193        5.6694892021       30.1510133732
  H        10.3468172692        4.5960741407       31.6526819981
  H         9.9324075951        6.3652960139       31.5872394230
  H        10.8691752830        6.0314231478       34.4747480023
  H        10.3025290195        4.4280405395       33.7650752125
  H        11.9998616455        4.6729371048       34.3982380697
  C        10.4329322866        5.0985055746       29.0421256480
  H        12.2474955868        5.1043044560       30.2577273923
  H        11.5598488314        6.6688900899       30.0298826390
  C        10.7192148931        5.4972312344       27.5828483379
  H        10.3360724446        4.0584629629       29.2993211792
  H         9.4312708066        5.3762824457       29.3659943135
  C         9.5776818970        4.8771056217       26.7007073080
  H        11.6518539776        5.0224148367       27.3242849805
  H        10.7655007719        6.6084975051       27.3512316338
  C         8.3453193498        5.7721595012       26.5865289294
  H         9.9176651615        4.7150652743       25.6962150347
  H         9.3488430181        3.8523460997       27.1115035945
  C         7.1993865003        5.1763208065       25.7225465927
  H         7.9425123345        6.2082616957       27.5502007965
  H         8.7446423265        6.6607665291       26.0684795557
  C         6.7949242243        3.8528286512       26.3181561805
  C         7.5772141850        4.4867171674       24.4711892465
  C         6.0380815167        6.1390170404       25.3801406722
  C         6.9615164148        2.6932256771       25.5439084896
  C         6.1507932088        3.4398381700       27.5524337896
  C         7.4385609610        3.1219643357       24.3283557563
  C         8.1190348636        5.1833559358       23.4212989325
  H         6.3889732154        6.9853408128       24.8223581822
  H         5.7469966907        6.5926966072       26.3638965270
  C         4.8304233680        5.3680646848       24.8144315458
  S         6.4836752790        1.1972046799       26.3221704017
  C         5.9909565075        2.0882728485       27.7246877002
  H         6.0281914674        4.2479568392       28.2512590005
  C         7.9248717526        2.5710009658       23.1476038660
  H         8.3540035890        6.2330357867       23.4978777241
  C         8.5066506610        4.6388382750       22.2294266573
  H         5.0352683572        5.0602776956       23.7921542208
  H         4.6285021434        4.4610027548       25.4666905195
  C         3.5599504872        6.2291051277       24.7846285702
  C         5.6291600748        1.3929483287       28.9737733429
  C         8.4279627269        3.2797526443       22.0377560553
  H         7.9282378667        1.4710302756       23.0491527075
  C         8.9944832952        5.1024021768       21.0237138785
  H         2.8403949229        5.6956363777       24.1802489527
  H         3.7147664061        7.2014150635       24.2636015411
  C         2.8897358943        6.3566673496       26.2706672830
  C         5.6956720245       -0.0912161096       29.1353517900
  C         5.2911932912        2.1939225837       30.1623334908
  C         8.8799917050        2.7222474499       20.7639203442
  C         9.1577900713        4.0483955723       20.1220269345
  S         9.4707410186        6.5534966873       20.3322570152
  H         2.2030126476        7.2353997852       26.2653217636
  H         3.6351386316        6.5983671026       26.9931214112
  C         2.1666520904        5.0935780309       26.7468906760
  N         5.9880617817       -1.0615753623       28.1943649503
  C         5.5181344435       -0.6807388076       30.3773043480
  C         5.0815925589        1.5441968594       31.4098486566
  H         5.1811003103        3.2476632829       30.0644157432
  C         7.7967692675        1.9165967081       19.9689217660
  C        10.1799352558        1.9570733130       20.8740006953
  C         9.6946754753        4.4837985160       18.8605736100
  C         9.8777035525        5.8523160318       18.8429835874
  H         1.3262440762        4.9601614721       26.0525471996
  H         2.7422124099        4.1906132617       26.5861195559
  C         1.6280337549        5.1454636699       28.1171677349
  S         6.0786320318       -2.5384065123       28.7928298049
  N         5.7740256742       -2.0961178649       30.3731193830
  C         5.2309508038        0.0839597283       31.5634823931
  H         4.9273928254        2.2399898799       32.2244384670
  H         7.5898659902        0.9887776080       20.4288342077
  H         8.4504578070        1.4443541549       19.1658696126
  C         6.5605737726        2.6208338715       19.3715412073
  H        10.5844958516        1.7915141552       19.8399893161
  H         9.9480698775        1.0320651895       21.2946777024
  C        11.3951628588        2.5413340217       21.6878972991
  H         9.8779349106        3.7659164435       18.0750630530
  C        10.1561336969        6.6769126412       17.6739590327
  H         0.8027012071        4.4605282333       28.0138887458
  H         1.2279267301        6.1096339844       28.4018238476
  C         2.6849641173        4.9111485613       29.2236210506
  C         5.0285660096       -0.5758013207       32.8127785813
  H         6.8363596584        3.6697324442       19.1886553408
  H         5.6223687858        2.7264753452       19.9512700685
  C         6.2156553054        2.0260405341       18.0007954530
  H        10.9912881616        2.7427501579       22.7244975348
  H        11.6098638998        3.5075923281       21.2527017915
  C        12.5741742371        1.5433809651       21.6293178757
  C         9.9818542490        8.0898455941       17.4706427422
  C        10.6548837233        5.8739816318       16.4102842141
  H         2.9997341501        3.9297578539       29.1679366366
  H         3.5419021327        5.5311537858       28.9628667263
  C         2.1357917112        5.1504383521       30.6452059328
  H         5.1253127284       -1.6525521143       32.6816932320
  C         4.7218625997       -0.1559204241       34.1140105585
  H         6.7013824951        1.0487108640       17.9253311712
  H         6.5495623241        2.5905388929       17.1626224364
  C         4.6751894243        2.0394916832       17.8816330948
  H        12.3506720207        0.8390034119       22.4186463601
  H        12.6022327476        1.1231763252       20.6288738700
  C        13.9264511539        2.1732684266       21.7677265879
  N         9.5093422058        8.9841402367       18.4527766888
  C        10.3945893138        8.7111282572       16.2735396570
  C        10.9518765386        6.5270216464       15.2190656760
  H        10.7662144675        4.8121967900       16.3930393720
  H         1.3543616914        4.5615939260       31.0328982379
  H         2.9215208495        5.0218980231       31.3716255255
  H         1.7724387709        6.1826134610       30.7863111400
  S         4.4629175404        1.3778765000       34.7931419701
  C         4.4640120376       -1.2539517046       35.0932714633
  H         4.3369382125        2.9920052158       18.1335452298
  H         4.4443895110        1.9010626301       16.8561665067
  C         3.9807519368        0.8938262451       18.6474465759
  H        13.9419623229        3.0061002149       21.1468835450
  H        14.6882546353        1.4212652280       21.4706716144
  C        14.1333617796        2.6478924878       23.2094574822
  S         9.3649559553       10.4439692188       17.7252684344
  N        10.1415979614       10.1183307258       16.3597519419
  C        10.8403238461        8.0264185027       15.0856853556
  H        11.5007328143        5.9140118391       14.5538650923
  C         4.1208178710        0.6668620238       36.2648196391
  N         4.1814178589       -0.7102151684       36.3060268872
  O         4.6405376876       -2.4028032466       34.7938609333
  H         3.9285938842        1.1712905356       19.6782622344
  H         4.5682758045       -0.0066804238       18.6095679900
  C         2.5636151581        0.5313705519       18.1439657299
  H        13.3173581891        3.3271366464       23.3287185146
  H        14.1664560321        1.8562064759       23.9549432056
  C        15.4165157668        3.4550597153       23.3835006815
  C        10.9886583351        8.7544296361       13.8717368723
  S         3.6865982489        1.5901289591       37.7002417354
  C         4.1972717180       -1.3983472870       37.5600348547
  H         1.9197460153        1.3238108148       18.4158998163
  H         2.6583732833        0.5003340858       17.1275261561
  C         2.0500858064       -0.7003561501       18.8960797334
  H        15.4094403215        3.6551390115       24.4203791762
  H        15.2743421936        4.4114018760       22.8396279433
  C        16.6272623437        2.8080303571       22.8579417774
  H        10.8005625397        9.8562373888       13.9656195977
  C        11.3953552061        8.4746027703       12.6006996042
  H         3.4311004996       -1.0084492359       38.2393954861
  H         3.8204406062       -2.4556120626       37.4835458571
  C         5.5938094952       -1.3433461098       38.1875267829
  H         1.1234418251       -0.6058491484       19.3817064213
  H         2.7198537603       -1.0884116321       19.6545086302
  C         1.8773332713       -1.8203382579       18.0298712399
  H        16.5556130701        2.5552106593       21.8555858564
  H        17.4479856513        3.5431777861       22.8647915110
  C        17.1397218759        1.5845099740       23.6706838119
  S        11.9386409614        6.8913441456       12.0149665542
  C        11.4357013470        9.5524330328       11.5928905562
  H         5.8591868749       -2.2150029358       38.8053602728
  H         6.4161455837       -1.2965505588       37.4640816742
  H         5.7250245374       -0.4152879770       38.6928904817
  H         1.0775786959       -1.7469908912       17.2607222260
  H         1.6053199662       -2.7179215740       18.6417849418
  H         2.7454043000       -2.0570961895       17.3642931566
  H        18.1128500369        1.8581731329       24.1320099529
  H        17.3973937921        0.7019449316       23.0651439169
  H        16.4141729170        1.3689935369       24.3914172177
  C        12.3107889845        7.7545895174       10.4574769031
  N        11.9699462329        9.0576230579       10.4346774816
  O        11.0786770699       10.6900835719       11.8739784015
  S        13.1932429212        7.1635564001        9.0471575185
  C        12.1654186119       10.0237482488        9.3669113727
  H        12.1146374804       11.0482981112        9.7008334419
  H        13.0839529463        9.9143151922        8.8982184217
  C        11.0883330077        9.9095886200        8.3195245311
  H        11.0049427580       10.9466807125        7.8703879911
  H        11.3568960014        9.3951840283        7.4684371818
  H        10.0776876165        9.5598830710        8.6723850467
  H         1.6770858335        1.1499150011       12.4097283725
  C         2.6591160390        1.6476439304       12.4794754186
  H         3.4582750853        0.9368081191       12.3074094786
  C         2.6797758132        2.6195271988       11.2120144192
  C         2.9205296665        2.4277138004       13.8020515602
  C         4.0251983307        2.7588889320       10.5537357806
  H         2.2596284364        3.5451190735       11.5194264838
  H         2.0814837233        2.1700191893       10.5042004833
  H         2.9209119349        1.8095979340       14.6512517905
  H         2.2947110450        3.3070534787       13.9800162085
  H         3.8963999218        2.8387535249       13.5864215846
  C         4.6578388094        1.4699025768       10.0181392972
  H         3.8404841117        3.4529179351        9.7228279021
  H         4.6827451235        3.2732918160       11.2625725746
  C         5.5124202597        1.7393625751        8.7152414402
  H         3.8549080240        0.8434474775        9.7811116964
  H         5.2488105306        0.9219503015       10.7842361373
  C         6.6502355029        2.6554738961        8.8239629519
  H         4.8334383103        2.0258128069        7.9550045048
  H         5.9174853991        0.8363500978        8.3543205581
  C         7.8763594525        2.0078725219        9.5025950675
  H         6.9161207589        2.9332429680        7.8542491625
  H         6.4347919261        3.5526072744        9.4027631573
  C         9.0716619688        2.9606255479        9.5547428544
  H         8.2560034322        1.2059595517        8.9872910298
  H         7.5794498677        1.7694851022       10.5312050021
  C         8.7512364385        4.3156224896       10.2319750504
  C         9.4617289483        3.6053771698        8.2763255919
  C        10.3222409250        2.2389620391       10.1339290302
  C         8.9821903893        5.4030361727        9.4107179161
  C         8.3898800660        4.7058335586       11.4946513258
  C         9.4659165605        4.9549817540        8.1729080079
  C         9.8523189437        2.9392865496        7.1314576788
  H         9.9985142489        1.7359649553       11.0611500231
  H        10.5717484959        1.3835871427        9.5322856692
  C        11.5207116582        3.0829263476       10.4217662145
  S         8.7461263297        6.9312017888       10.1423818889
  C         8.2675757334        6.1092868771       11.6501219837
  H         8.1584541469        3.9264773737       12.2404911339
  C         9.7832616645        5.5781447307        7.0097130598
  H         9.8082307452        1.8888108359        7.0852461945
  C        10.1900768085        3.5490941630        5.9724069993
  H        11.1895670121        4.0791979829       10.8825548620
  H        11.8569421968        3.3588410977        9.4850429193
  C        12.6862587918        2.4598126487       11.1759428005
  C         7.8263743061        6.8551533031       12.8779295115
  C        10.2168606792        4.9029615021        5.9206659661
  H         9.7482109187        6.6508957833        7.0124420721
  C        10.6203571779        3.1464743094        4.7148534592
  H        13.3766313592        3.2845685141       11.3476700636
  H        13.1803895642        1.7280665312       10.6168660590
  C        12.3385588159        1.8191813203       12.5488688755
  C         7.8273563508        8.2395818442       13.1273381033
  C         7.4539322980        5.9982988959       14.0956308293
  C        10.7119887018        5.5947891149        4.6800025270
  C        10.8960488480        4.2418013158        3.9507487903
  S        10.9817693168        1.6453298831        3.9529991548
  H        11.4782623476        1.1025309029       12.3857733267
  H        13.1616827356        1.1816820402       12.8435897340
  C        12.0161242877        2.8113679026       13.7247516173
  N         7.9891016609        9.1546534002       12.1224494788
  C         7.5810160465        8.7334124846       14.3844169025
  C         7.0624798540        6.5356282045       15.2522167286
  H         7.1804355706        4.9889974215       13.8946546810
  C        12.1144300673        6.3489608987        4.8839567749
  C         9.6090542230        6.4567041035        4.0097191961
  C        11.2509628823        3.8731548546        2.6482507093
  C        11.3753017427        2.5142629463        2.5225181845
  H        11.2874437949        3.5175896506       13.2958148863
  H        12.8791706246        3.4223755779       13.9314752431
  C        11.4635425995        1.9639666117       14.8960595962
  S         7.9259890894       10.6471625652       12.8187844636
  N         7.6284046896       10.1247863396       14.3883277979
  C         7.1619899881        7.9394185329       15.5052004917
  H         6.8049336623        5.7783577456       15.9628569041
  H        11.8933015370        7.2946662813        5.4253324021
  H        12.5366853799        6.6855664498        3.9513282626
  C        13.1655069896        5.4791243600        5.5911564452
  H         9.3837099656        7.2167754404        4.7056008539
  H        10.0921791559        6.8536474621        3.1208837667
  C         8.3095382329        5.6349563062        3.6998681079
  H        11.4512127910        4.6678444355        1.9759756477
  C        11.6645152776        1.8382923365        1.2237824780
  H        10.8050114337        2.6309706052       15.3752793628
  H        10.8315142272        1.1747310944       14.6498598265
  C        12.6313222913        1.5875283139       15.7751619585
  C         6.6508425352        8.5501975623       16.6833138619
  H        12.7913351266        5.2051494952        6.6229046168
  H        13.3006121594        4.5624816954        5.1315536058
  C        14.4066634403        6.3821187437        5.7579746261
  H         7.8672306159        5.1904617241        4.5962709579
  H         8.5504246471        4.8118104028        3.0283792212
  C         7.2451253077        6.6256669435        3.0515681945
  C        11.6857371116        0.4108964325        0.9747583303
  C        12.1338232355        2.6631480916        0.1219211680
  H        13.5063046405        1.7454027705       15.1229071185
  H        12.5046592844        0.5457737955       16.0309750444
  C        12.4206960546        2.3482067026       17.1056353884
  H         6.4384077993        9.5885314303       16.5463944168
  C         6.2754946864        8.0205628505       17.8754084412
  H        14.0505788888        7.2564657796        6.3068022689
  H        14.6363771303        6.7088271623        4.7739192934
  C        15.5449491255        5.6806534719        6.4744726062
  H         6.7317762454        7.0699950519        3.9047194035
  H         7.6419266486        7.5619918175        2.5182998580
  C         6.2628516691        5.9026083295        2.1271996327
  N        11.5052614603       -0.4889591352        1.9929440225
  C        12.0442660803       -0.2153312092       -0.1920552485
  C        12.4324106118        2.0705463791       -1.1008808682
  H        11.9733929140        3.7189290445        0.2059020435
  H        12.5648352512        3.3374414916       16.9243487413
  H        13.1786818794        2.0229768048       17.8103440707
  H        11.4451679124        2.2001345167       17.5616737608
  S         6.2639302702        6.3510342610       18.2853660635
  C         6.0585333212        8.9624226124       18.9852922348
  H        15.7417986297        6.1797590467        7.4698302051
  H        15.1123426561        4.6708264472        6.7616161978
  C        16.7729321013        5.4309759879        5.6091002949
  H         6.2420638679        4.7666291137        2.2325939674
  H         6.3621985989        6.1811262586        1.0442075885
  C         4.7711700925        6.2971886588        2.3688475541
  S        11.4054703601       -1.9732500393        1.2841479105
  N        11.9561473550       -1.6082779122       -0.1774974376
  C        12.3966719593        0.5999421736       -1.3129830898
  H        12.5842412647        2.6374742320       -1.9928314000
  C         6.1498847437        6.9389651964       19.9600634284
  N         5.9385957572        8.2620547845       20.1121021967
  O         6.1247785401       10.1856505818       18.8288815555
  H        16.5621276072        4.7633866398        4.7671637512
  H        17.2117790497        6.3441675715        5.1349484851
  C        17.7949454558        4.6612384027        6.4312955129
  H         4.0602353085        5.7819910339        1.7378568748
  H         4.6828241486        5.8616250818        3.3813126939
  C         4.3475193878        7.7675833316        2.2436137914
  C        12.7245415754       -0.1494873195       -2.5123980464
  S         5.6363425719        5.8125772312       21.2034645168
  C         5.7322706086        8.8349453339       21.4155438201
  H        17.3068650337        3.9587847472        7.1355975223
  H        18.3037088918        4.0499411331        5.6724005048
  C        18.6931690062        5.5205797447        7.2829460457
  H         4.8086332030        8.3142993973        3.0176252098
  H         3.3415355535        7.9910646731        2.4692336626
  C         4.6415498996        8.3985588538        0.8853874728
  H        12.5215651579       -1.2082732293       -2.3789385893
  C        13.2387197252        0.1585555820       -3.7240066045
  H         5.1024539118        8.2582840680       22.0351344329
  H         5.2579365283        9.7377526017       21.3841157137
  C         7.0594971863        9.2038510742       22.0015452646
  H        18.9510296609        4.9671752396        8.2152008066
  H        18.1879861057        6.5085620155        7.5502840467
  C        20.0483091327        5.7780420030        6.5807824844
  H         5.7041196008        8.7157973412        0.9001635341
  H         4.4500413747        7.5652405414        0.1528492904
  C         3.9087338250        9.6823814501        0.6636812527
  S        13.5955450548        1.8180278246       -4.2085987392
  C        13.5322259237       -0.9426893230       -4.6993943346
  H         7.5958024558        8.4914808250       22.6189322909
  H         6.8111941709       10.0691272250       22.6367782739
  H         7.7020553052        9.6860210951       21.3277993541
  H        20.6634607324        6.2523309690        7.3428914280
  H        20.4431257524        4.8446482487        6.3332445504
  H        19.8402994033        6.3909550669        5.7264954353
  H         4.0501492208       10.3521681944        1.4867439383
  H         4.2725916662       10.2464300496       -0.2603548235
  H         2.8398744955        9.5040343767        0.5125545730
  C        14.0001966945        0.9696591359       -5.7977931563
  N        13.9389420343       -0.3826624643       -5.8324022126
  O        13.0806802070       -2.0961125328       -4.4768339962
  S        14.3763014058        1.9529071819       -7.1442569413
  C        14.1094850683       -1.1588223469       -7.0504681051
  H        14.1252755774       -2.2148790660       -6.7828589328
  H        15.0343527273       -0.8529954189       -7.5756552661
  C        12.8077852578       -1.0500018029       -7.8667514869
  H        12.8747758204       -0.4527926507       -8.7537844683
  H        12.0414420338       -0.6160795678       -7.2400575219
  H        12.3420196888       -1.9819030868       -8.1954296110
