352
 i =    96000, time =    48000.000, E =        99.3988930183
  H        11.9577011781        6.5692042768       32.6202893359
  C        11.1364741173        5.7938143749       32.5846989272
  H        11.7125600189        4.9733811469       32.3846260497
  C        10.2562818298        5.9708885552       31.3557870927
  C        10.6508645145        5.7008594628       34.0201408305
  C        10.8199272207        5.6213688229       29.9828138341
  H         9.2665402497        5.4592571209       31.4536715665
  H        10.1107334929        7.0591866468       31.3503220728
  H        11.5260961780        5.6670371711       34.6665475598
  H        10.0451342601        6.5958026985       34.2401152962
  H         9.9878203433        4.8707167759       34.2208421562
  C         9.7067600598        5.9014502279       28.9128931200
  H        11.1258855168        4.5934580577       29.9833932207
  H        11.7344118972        6.1423259348       29.6991168845
  C        10.3433863369        6.0777550723       27.5141643787
  H         8.9247228444        5.1286830316       29.0805247278
  H         9.2070282128        6.8563820152       29.2635039855
  C         9.4059538433        5.3280771429       26.5199255145
  H        11.3610540104        5.6911988392       27.4886870281
  H        10.5614771664        7.1101681622       27.3542672228
  C         8.0238631639        6.1053093751       26.3074893193
  H         9.9149775004        5.4431839407       25.6418151673
  H         9.1989380154        4.3054887827       26.8267478779
  C         6.9997953332        5.2217050345       25.5742669436
  H         7.5997970386        6.2996867399       27.2841191954
  H         8.1091935465        7.0902874832       25.8517192116
  C         6.6559585177        3.9429186911       26.3175261476
  C         7.5356441446        4.5013307202       24.3979922604
  C         5.6544891531        6.0629286214       25.3021406451
  C         6.9811718480        2.7913053702       25.5538664743
  C         6.1304441864        3.5787704732       27.5707101475
  C         7.5061152329        3.1527856107       24.3071717342
  C         8.0890733002        5.1377660798       23.2988275375
  H         5.9384285114        7.0496771735       24.8874661414
  H         5.3145488534        6.3903339894       26.2607975212
  C         4.6046103043        5.3351773414       24.4726691438
  S         6.6770946963        1.3259200379       26.4390364734
  C         6.2620892214        2.2464230408       27.8285862442
  H         5.9630286947        4.3567310045       28.2768056918
  C         8.0017281864        2.5159533973       23.2014038326
  H         8.1456362022        6.2519930733       23.2350261044
  C         8.5642311220        4.4807996331       22.1856375041
  H         5.0507050566        5.0893498963       23.4649544335
  H         4.3591838788        4.3084141397       24.8789955109
  C         3.3270644183        6.2114411667       24.4639157846
  C         5.9027389865        1.5743401599       29.1191042752
  C         8.5553374682        3.1396739933       22.1185519597
  H         7.9845587033        1.4519792156       23.1811119669
  C         8.9595497577        4.8821506389       20.9118229890
  H         2.5610225599        5.8602469513       23.7971510657
  H         3.5480379229        7.2173478951       24.1832883010
  C         2.5891007266        6.2522386269       25.8743348443
  C         6.0006957678        0.1564600607       29.3617622363
  C         5.3932732727        2.3623898975       30.2738504009
  C         8.9062403560        2.4502237679       20.7967711032
  C         9.3117089110        3.8206841397       20.1213566645
  S         9.1967779518        6.4347088498       20.2028342963
  H         1.7354717335        6.8850777141       25.8746023567
  H         3.2496342365        6.8044907005       26.5176554765
  C         2.3045280274        4.8641120407       26.5147067499
  N         6.2812136230       -0.8695289973       28.4485084115
  C         5.7463886557       -0.3605153899       30.6207995828
  C         5.2841684725        1.7933761002       31.5194517070
  H         5.1176285892        3.4136077871       30.1271908521
  C         7.6798210270        1.8088125028       20.1332485460
  C        10.1041684549        1.5295471195       20.8789242866
  C         9.6160707001        4.2734684641       18.8197144845
  C         9.6526524537        5.6149862292       18.7279208445
  H         1.6243071699        4.2783011716       25.9395180163
  H         3.1705105023        4.3112719221       26.5897827355
  C         1.5429210443        4.9487495347       27.9118543358
  S         6.1023799515       -2.3081170303       29.1289222316
  N         5.8420686558       -1.7754109584       30.6541771557
  C         5.4199512963        0.3305093327       31.7613863527
  H         4.9079684089        2.4554292009       32.3225862662
  H         7.0878440229        1.2681623895       20.9073027256
  H         7.9442763601        0.9397989695       19.4749393808
  C         6.7033900135        2.7309462670       19.3329454941
  H        10.1382248846        0.8680540637       20.0647276113
  H        10.0016363306        0.8619324006       21.7113412160
  C        11.3268525030        2.3853127638       21.0638929396
  H         9.8299235972        3.5850847633       18.0280755590
  C         9.9461351996        6.3986474262       17.4350691301
  H         1.4273841345        3.8953520808       28.2183802534
  H         0.5491679188        5.3467538054       27.7336662810
  C         2.3925484012        5.8203546764       28.9723547671
  C         5.0691896139       -0.4024130439       32.9321868506
  H         7.2373455552        3.4160287892       18.7181651156
  H         6.1973555434        3.1775096277       20.1531023805
  C         5.6407099075        1.8901777439       18.4883164114
  H        11.1821848549        3.2386671846       21.7120586781
  H        11.5901139482        2.8298670457       20.0340441996
  C        12.5943527798        1.6057478308       21.4941960565
  C         9.9651814064        7.8093695852       17.3240486762
  C        10.2391919924        5.6398048281       16.1996157861
  H         3.4269636174        5.8428296469       28.7594823580
  H         2.0603746319        6.8385635404       28.8063747658
  C         2.1456810123        5.3512004129       30.4184676341
  H         5.0034951708       -1.4381102441       32.7614855271
  C         4.7297477811       -0.0105382792       34.1836457855
  H         5.1966713461        1.1909728803       19.1756532778
  H         6.2902234293        1.3524491580       17.7853980085
  C         4.6662663664        2.7525734025       17.6708138678
  H        12.4103286063        0.9693417163       22.3125338176
  H        12.7821779626        0.8735792908       20.6813507028
  C        13.7322292340        2.6029133187       21.6365763368
  N         9.7453389199        8.6670519740       18.4111116757
  C        10.2529844355        8.5035894490       16.1784860883
  C        10.6434524834        6.3582486794       15.0965228327
  H        10.1386183443        4.5852442581       16.1971229231
  H         3.0676874880        5.0198220328       30.9454138840
  H         1.6673176120        6.1832824463       30.9879355898
  H         1.5018117052        4.5135299675       30.4549751698
  S         4.3430021789        1.4901505382       34.8103202064
  C         4.6056071813       -1.1319931508       35.1802219241
  H         4.1515379278        3.2692561144       18.5113411593
  H         5.3098142829        3.5289201321       17.1514970961
  C         3.6827159805        1.9751289430       16.8085007982
  H        13.6225683491        3.1093192357       22.6025148114
  H        13.7905852511        3.2560856748       20.8171111052
  C        15.0479096503        1.8298329907       21.8122870101
  S         9.8113647513       10.2183673759       17.8154975174
  N        10.2112376462        9.8606612377       16.3146800466
  C        10.6799385685        7.8800018611       15.0020508309
  H        10.8630587851        5.8622629858       14.1943838764
  C         4.1325036394        0.6773434548       36.3680624300
  N         4.3137468078       -0.6590880700       36.4209223620
  O         4.9577220779       -2.2975967362       34.9613456384
  H         4.2847075095        1.7007150074       15.9497718214
  H         2.8818929143        2.5083931172       16.4899215454
  C         3.0603331256        0.6810636200       17.5069346938
  H        14.9093898768        1.0293852400       22.5740046894
  H        15.2550986144        1.2928843531       20.9044251228
  C        16.2546198893        2.7499469678       22.0483782018
  C        11.0106127724        8.7233892003       13.8804734620
  S         3.6292929477        1.4888780974       37.8396267452
  C         4.2881810216       -1.4624436431       37.6400479657
  H         3.2636285469        0.5557996229       18.5494570646
  H         1.9760625429        0.8390417346       17.3184586157
  C         3.4091375179       -0.6103234924       16.8439178188
  H        15.9135070105        3.6796118027       22.5440349723
  H        16.7302385004        3.0238554462       21.0557095171
  C        17.3164741072        2.1908665745       23.0115387186
  H        10.8003681822        9.7993431406       13.9632334427
  C        11.5002277064        8.4489950197       12.5836964174
  H         3.4641333673       -1.1344241134       38.3192807511
  H         3.9670116068       -2.4719674656       37.4556042394
  C         5.7252369824       -1.5017363325       38.2396569482
  H         4.5310644895       -0.7373394784       16.5837419678
  H         3.1080002892       -0.6444053923       15.8086254013
  C         2.7101464167       -1.7295226905       17.5034780797
  H        17.4270478617        1.1817073448       22.6739761291
  H        18.2966317555        2.5231589046       22.8593324383
  C        17.0475820213        2.2957765151       24.5667073747
  S        11.9002301700        6.8881779832       11.9558459237
  C        11.7095590822        9.5714966055       11.6205586585
  H         6.3195957307       -0.5711456011       38.1664391116
  H         5.6454013323       -1.8154593517       39.2700627144
  H         6.3404152645       -2.2022851794       37.6643787545
  H         3.0208850180       -1.7550252148       18.5512180121
  H         3.0667359260       -2.6689938224       17.1850318580
  H         1.6337727131       -1.6497955575       17.4739588799
  H        17.9179317017        2.2192504184       25.2458989101
  H        16.4094674169        1.3902494095       24.8542329500
  H        16.5444426619        3.1709248455       24.8368517936
  C        12.3581884721        7.6824202607       10.4643338133
  N        12.2735097521        9.0313229880       10.4980732892
  O        11.3899865115       10.7296635036       11.8549636789
  S        13.0320077692        7.0100758831        8.9744707674
  C        12.4804203838        9.8815923995        9.4066635251
  H        12.4837330650       10.8756199088        9.8014513652
  H        13.4396992499        9.8138451542        8.9542944470
  C        11.3205768373       10.0256993487        8.3546736069
  H        11.4105072206       10.8591718251        7.6773626142
  H        10.9175948002        9.1305386467        7.8439766371
  H        10.3920305466       10.3356118230        8.8506839430
  H         3.3272465962        1.1963822771       12.7414830699
  C         2.9011082511        2.2457756589       12.6173099376
  H         3.7192534396        2.9442066798       13.0060313687
  C         2.5818408943        2.4422825070       11.0943388712
  C         1.6607364578        2.4935553629       13.4162221011
  C         3.7414421093        2.8942358704       10.2431790590
  H         1.8364200478        3.2021903228       10.9704686927
  H         2.2690207638        1.4493579431       10.8356786563
  H         1.9278234337        2.3630119980       14.4641813202
  H         0.8727228309        1.8164942316       13.1010315322
  H         1.2360352228        3.4398618647       13.3381519180
  C         4.5683991692        1.7137908006        9.7880946601
  H         3.1992816269        3.2576566732        9.4201377964
  H         4.3930295200        3.7090925434       10.6671474865
  C         5.4062933120        1.8708984283        8.4856003492
  H         3.8939694972        0.8896967428        9.5280399216
  H         5.2376801861        1.3988953385       10.6481390468
  C         6.6551364302        2.6455432083        8.5821877283
  H         4.8781215687        2.4433329794        7.6941392416
  H         5.6450092655        0.8650890840        8.1027032158
  C         7.8403208615        1.9595561593        9.2879644872
  H         6.9681823276        2.8641817861        7.5692265187
  H         6.4191651819        3.5420326945        9.0683295521
  C         9.0821563528        2.8451933399        9.4203513990
  H         8.1019776939        1.1508501131        8.6066731657
  H         7.5589819594        1.3825555857       10.1491310812
  C         8.6802562039        4.1548522828       10.1013437774
  C         9.5832156349        3.5215006174        8.1941992347
  C        10.2360349075        2.2335328785       10.2585376280
  C         9.0118209696        5.2736859708        9.3205782051
  C         8.3090512878        4.6596193220       11.3983233326
  C         9.4355756079        4.8451175519        8.0930379190
  C        10.0858279246        2.8850423539        7.0687066235
  H         9.6955655005        1.9466850349       11.1585222340
  H        10.5904348806        1.3183282100        9.7838665858
  C        11.3797807145        3.2208804996       10.7066747965
  S         8.6081633168        6.8219705898       10.0082317384
  C         8.2459084546        6.0444911233       11.4978472886
  H         8.0641931707        3.9609193223       12.1892004950
  C         9.7621384739        5.4364130398        6.9408379792
  H        10.0955851600        1.7661544715        7.0656856829
  C        10.3922545175        3.5349779939        5.8996717891
  H        11.1606019857        3.8788881622       11.4591204690
  H        11.8232433159        3.7502290185        9.8818252259
  C        12.5728382576        2.5045692743       11.3767922779
  C         7.7706405528        6.7497558475       12.7049004104
  C        10.1721021754        4.8319688533        5.7576356433
  H         9.6533808746        6.5298990391        6.8458168092
  C        10.8558856113        3.1507890519        4.6462027711
  H        13.5377645872        2.8335267585       10.8563288118
  H        12.3057852141        1.3619728057       11.3740232172
  C        12.8410210307        2.8287450382       12.8744921454
  C         7.7787449174        8.1732489312       12.8549156709
  C         7.3503110261        6.0266937502       13.9268282693
  C        10.5776097449        5.5618803687        4.5520320570
  C        10.9482098866        4.2709534015        3.8312374009
  S        11.2771946454        1.6606849646        3.8410828074
  H        13.8170745101        2.4388709284       13.1892755934
  H        13.0938490503        3.8760744405       12.9475235360
  C        11.7186386831        2.4362132523       13.7636781917
  N         8.2004743136        9.0944842102       11.9126812354
  C         7.4610912663        8.8333990546       14.0576350640
  C         6.9753841976        6.6840262391       15.0832546589
  H         7.3783569794        4.9523734558       13.9824330127
  C        11.7795060496        6.5331423009        4.6869759197
  C         9.4161462248        6.3532363485        3.8259618091
  C        11.3707588694        3.8923724804        2.5256820832
  C        11.5221741850        2.5538914783        2.3685156944
  H        11.7374075479        1.3398524303       13.8586073264
  H        10.7417586714        2.7116718080       13.2888703452
  C        11.8751950228        2.9939287440       15.2134239398
  S         7.8243362960       10.6140262474       12.3684155667
  N         7.4152148982       10.2388606503       13.9181157950
  C         7.0636372722        8.1575773551       15.2148482015
  H         6.7197670186        6.0180338357       15.9137129659
  H        11.5724529741        7.4965940593        5.0434064499
  H        12.1295753950        6.7561517849        3.6892462196
  C        12.9604076719        5.7504067098        5.3820688692
  H         8.8703121287        6.8236527290        4.6975579605
  H         9.8233822139        7.0676440491        3.1373195864
  C         8.4703658197        5.4505120647        2.9929708052
  H        11.4170606272        4.6818009602        1.8101006065
  C        11.7883763600        1.7519886547        1.0805100502
  H        12.1937757929        4.0009816334       15.1536673434
  H        10.9717601776        2.8492866121       15.6628554683
  C        12.9502490924        2.3085008569       16.1015747551
  C         6.7361356590        8.9414078742       16.3839286723
  H        12.6817749420        5.5413322597        6.4274372954
  H        13.2350963919        4.7905916433        4.9119857761
  C        14.2261526664        6.5685311948        5.4733320781
  H         8.2702877925        4.5728476304        3.5733956533
  H         8.9649266390        5.1210367031        2.1280112774
  C         7.1296718148        6.1104911295        2.5743086309
  C        11.7687381564        0.3234593292        0.9049267939
  C        12.0634563491        2.5673712432       -0.1433774824
  H        13.8724099059        2.3507933539       15.5373942266
  H        12.8400134961        1.2548246563       16.1246004112
  C        13.2714096900        3.1089708808       17.3815623290
  H         6.8106995197       10.0128506171       16.2089041742
  C         6.4278205853        8.5263139225       17.6964680319
  H        14.2690707332        7.3830456452        6.2171786373
  H        14.2541628098        7.1323642386        4.5232114402
  C        15.4236129099        5.5978001468        5.6231722717
  H         6.5464260034        6.2133214626        3.5293222251
  H         7.2463690595        7.0848178917        2.0856794144
  C         6.2823616697        5.3017824374        1.6394718204
  N        11.6240031666       -0.5891635836        1.9716525024
  C        12.0158670152       -0.3411273801       -0.3121088080
  C        12.2585577880        1.9207471393       -1.3601479104
  H        12.1088162126        3.6591931120       -0.1595278422
  H        13.1488900335        2.6399299455       18.2947712891
  H        12.5996823287        4.0031240336       17.3356781124
  H        14.3418708987        3.3800524189       17.3722865119
  S         6.2459663459        6.8531901820       18.2075787820
  C         6.2882938753        9.4846618457       18.7670984314
  H        15.0342078088        4.7390595425        6.2216300689
  H        15.8007052978        5.2950083853        4.7250598925
  C        16.6680964802        6.1231294795        6.3168615824
  H         6.3602280948        4.3224642209        1.9536830325
  H         6.6457589129        5.3532591148        0.6096862920
  C         4.8313818732        5.8349826934        1.6658614630
  S        11.7817842491       -2.0626187267        1.3240445374
  N        12.2018693516       -1.6967929076       -0.2246512451
  C        12.2525147399        0.3737961814       -1.4580386809
  H        12.2506162977        2.5043931199       -2.2880172182
  C         6.1061240894        7.4946180361       19.7989618217
  N         6.0238715600        8.8136108226       19.9151124396
  O         6.3234652507       10.7095123684       18.6375706792
  H        16.9714877543        7.0673863711        5.9168221728
  H        16.5534405623        6.3088638469        7.3923685065
  C        17.8468370419        5.0626883652        6.2171682233
  H         4.1823862024        4.9482233971        1.7262872796
  H         4.6174508598        6.2891833877        2.6136890505
  C         4.5186422471        6.7314626550        0.3923845969
  C        12.5632641046       -0.3935992586       -2.6165774388
  S         5.4971490242        6.4991012296       21.1490159073
  C         6.1531599604        9.5707777450       21.1867111672
  H        17.3890851048        4.1147515191        6.5525948965
  H        18.2042711760        4.8980691109        5.1623735408
  C        19.0627498690        5.5694352250        7.0225530573
  H         4.0162385228        6.1309656421       -0.3325442821
  H         5.4869953658        7.0765741598       -0.0671631656
  C         3.6363732866        7.9432993923        0.7588401960
  H        12.1737774747       -1.3662531467       -2.6020716601
  C        13.1842119227       -0.0347484451       -3.8123750211
  H         5.8197396578        9.0714042235       22.0669709240
  H         5.5885283195       10.4743865948       21.1717413509
  C         7.6379525454        9.8520114591       21.4677157863
  H        19.0046860135        5.0223955017        7.9662083318
  H        18.9724546021        6.5468136416        7.4790368709
  C        20.3905501014        5.4079149506        6.3404436688
  H         3.1814781374        8.3003621264       -0.1939892331
  H         2.8789091566        7.5291515292        1.4288554099
  C         4.2753519306        8.9996016368        1.5136103604
  S        13.8740667843        1.4126468104       -4.3817453616
  C        12.9751797734       -1.0917384505       -4.8477345158
  H         8.0263995013        9.5874500174       22.4725312026
  H         7.8349909422       10.8975271498       21.2995757819
  H         8.1813180609        9.2828278419       20.7318448079
  H        20.3610107110        6.1055922549        5.4981589807
  H        21.1714465260        5.7674736495        7.0414102328
  H        20.6564281965        4.4084280757        6.0657818422
  H         3.6797456029        9.8795339771        1.5354604537
  H         4.5047854470        8.6015762939        2.4981857747
  H         5.2444907454        9.3069865198        1.0371981838
  C        14.0526969248        0.5817148090       -5.9140350893
  N        13.6023922686       -0.7285724161       -5.9567523752
  O        12.4059125445       -2.1967396643       -4.6219174925
  S        14.7960005245        1.3156349015       -7.3980291632
  C        13.7790656331       -1.6828145834       -7.0763385754
  H        14.0190746796       -2.6042904922       -6.5763307680
  H        14.6325488529       -1.4806271706       -7.7383751743
  C        12.4756034449       -1.8919028764       -7.8299141308
  H        11.8206985417       -1.0452215621       -7.6687130197
  H        12.0223243673       -2.7488721123       -7.4053490996
  H        12.7468728215       -2.0904112387       -8.8699610566
