352
 i =    55900, time =    27950.000, E =       100.2839224915
  H        10.2428080255        3.9309036652       31.6218890529
  C        10.3425161667        4.9198173347       32.1213590914
  H         9.4400717679        5.4923318128       32.0074214634
  C        11.5283731026        5.6603937097       31.4686695805
  C        10.6676415301        4.5776149026       33.6002584358
  C        11.7112861605        5.6481891805       29.9383448998
  H        11.4518744507        6.6799011735       31.9209278905
  H        12.4725963187        5.2422790311       31.8058995824
  H        10.8469079367        5.3417340417       34.3021270714
  H         9.7743699293        4.0911949141       33.9555573192
  H        11.3033162873        3.7025955888       33.6771517773
  C        10.3672727463        5.5194181513       29.1643706859
  H        12.3621217976        4.8594100466       29.5643173406
  H        12.3079982478        6.4222254156       29.6172691707
  C        10.7131963541        5.5418780574       27.5960488212
  H         9.9394532748        4.5570602407       29.3430596515
  H         9.6013906896        6.1903404546       29.3593469874
  C         9.6273046990        4.8666721210       26.6741150146
  H        11.6307840848        4.9931372609       27.4831298078
  H        10.9751919065        6.5714722946       27.3324498414
  C         8.3362141810        5.6411380203       26.4302161537
  H        10.1965686839        4.7025308427       25.7480187638
  H         9.4180930941        3.8532214349       27.0187332327
  C         7.2791048252        4.8645277269       25.6901004593
  H         7.7561519555        5.9386690680       27.3871554530
  H         8.4996238138        6.5908607906       25.9008616066
  C         7.0061803715        3.4369576706       26.3962381548
  C         7.7205114386        4.1367029943       24.3878743192
  C         5.9744468320        5.6345981783       25.5165781305
  C         7.2727178347        2.3474545707       25.5327061998
  C         6.8064931112        2.9363734493       27.6390989427
  C         7.6531792267        2.7947658845       24.2505626639
  C         8.1129522377        4.7563480670       23.2153242306
  H         6.1916251031        6.5068894565       24.8955062916
  H         5.5369273791        5.8356347556       26.5692856249
  C         4.8745132316        4.9810881132       24.6678488958
  S         6.8753689639        0.8197241780       26.1174152252
  C         6.4961020385        1.5737106933       27.6324242053
  H         6.7285152203        3.5555598483       28.5299706357
  C         7.9756839944        2.1120995891       23.1479686549
  H         8.1832838232        5.8568907768       23.1951522203
  C         8.4592983245        4.1368918153       22.0559777190
  H         5.2331757139        4.5285129050       23.7301134741
  H         4.5752967331        4.0842424938       25.1388819510
  C         3.6358864446        5.8568588791       24.4898325223
  C         5.8148856047        0.8436974323       28.7503146688
  C         8.4095872401        2.7665444802       21.9798911134
  H         7.7173735119        1.0469631589       23.1696605228
  C         8.8059002154        4.5543242292       20.7312825034
  H         3.1302613141        5.5048183785       23.5913431421
  H         4.0692721937        6.7906515541       24.1882152678
  C         2.7682875150        6.0002533886       25.7738835965
  C         5.9005132217       -0.5441741444       29.0816520329
  C         5.1492561837        1.7075480471       29.7335206955
  C         8.7875059651        2.0921636253       20.6362467262
  C         9.0251057712        3.3953380896       19.9437280389
  S         9.0262749071        6.0803218690       20.0078985731
  H         1.8374316436        6.3258377388       25.4164468395
  H         3.2245545372        6.8379774720       26.3505212480
  C         2.5612321118        4.7825442285       26.7046968780
  N         6.3575714732       -1.5910828462       28.3031967616
  C         5.5247827352       -1.0109424477       30.3041537428
  C         4.8361069268        1.2397476202       31.0088095560
  H         4.8118028142        2.6730350562       29.4003826805
  C         7.6380719685        1.2682056532       20.0331438918
  C        10.0995791737        1.2240433255       20.7659877356
  C         9.4076265547        3.8054289071       18.6278655851
  C         9.5108631714        5.1787173919       18.5616283417
  H         2.0846833630        3.8735678517       26.3720098600
  H         3.5247112975        4.4988560153       27.1509949889
  C         1.6608656325        5.0654336879       27.8670390828
  S         6.3526497912       -2.9497520924       29.1572377140
  N         5.6737537614       -2.3671513479       30.4969811065
  C         5.0790611741       -0.1529962056       31.3460654818
  H         4.3817857544        1.8928175205       31.7083263159
  H         7.1450646374        0.5964788845       20.6835082290
  H         8.0346686342        0.6806396781       19.1853788987
  C         6.4654044978        2.1674045419       19.4183671295
  H        10.3728003832        0.6570888434       19.8582750499
  H         9.8823290974        0.4979431017       21.5562358853
  C        11.3130893301        2.0377561149       21.2205562058
  H         9.6131110854        3.1011006782       17.8535453097
  C        10.0144935387        5.9321627504       17.3667279312
  H         1.0100677194        4.2237377209       28.0811162050
  H         0.8850980543        5.8089117180       27.5550991410
  C         2.4428677815        5.5057473714       29.1314695079
  C         4.7880782043       -0.7955241093       32.6059658592
  H         6.7924353031        2.7753994277       18.5983174548
  H         6.0738381697        2.8142487174       20.1824560157
  C         5.3166172406        1.2952874343       18.9266703435
  H        11.1727091198        2.5190621953       22.1874809973
  H        11.5463814989        2.9923600652       20.6901885233
  C        12.5572923931        1.0968873640       21.3585603324
  C        10.0294075738        7.3235139813       17.2613722679
  C        10.3760317132        5.1712477025       16.1685846730
  H         3.4126721814        4.9844202876       29.2491853295
  H         2.5451410700        6.5546460699       29.0004261477
  C         1.7120962460        5.3367304842       30.4475493202
  H         4.5618102115       -1.8314060030       32.5895558219
  C         4.4670887573       -0.3276502962       33.8708967928
  H         4.8819791390        0.6432751146       19.7176328183
  H         5.7236817058        0.6464613145       18.1330997759
  C         4.1198143991        2.1311183253       18.4059710271
  H        12.2645536030        0.5693351158       22.2874939651
  H        12.5759579420        0.5049566227       20.4284845086
  C        13.7823555169        1.9651655007       21.4317499347
  N         9.6744220097        8.2213616236       18.2725694074
  C        10.3111337168        7.9807190174       16.0522809374
  C        10.4860503603        5.8566176254       14.9460518788
  H        10.2796711624        4.1169687054       16.2265978054
  H         2.4302084863        5.4491487227       31.2207924099
  H         0.8959017330        6.0584520561       30.5197215700
  H         1.3241050358        4.3961423369       30.5196586911
  S         4.2372492173        1.3074684207       34.3458501463
  C         4.2640295241       -1.3313470804       34.9046364829
  H         3.9000313318        3.0425472422       19.0283725226
  H         4.4542520250        2.5516545935       17.4702779680
  C         2.8599655048        1.3249949134       18.2150350753
  H        13.4527950399        2.7839256483       22.1324532576
  H        13.9971225699        2.4532095639       20.4724575650
  C        15.0521543741        1.3932703635       21.9834718497
  S         9.9722734214        9.7413015286       17.7507895039
  N        10.4008245773        9.3991946021       16.2257409145
  C        10.4578377025        7.3298485310       14.8077548529
  H        10.6174244857        5.2094319602       13.9978030888
  C         3.9045410678        0.6106042519       35.9267490198
  N         4.0167847974       -0.7415576444       36.1159484519
  O         4.4734452106       -2.5079998876       34.7574165923
  H         2.1969879792        2.0275926590       17.6751634144
  H         2.5131412246        1.1761437071       19.2262725676
  C         3.0353874915       -0.0838473777       17.6788211698
  H        14.9011575931        0.8995936871       22.8990820302
  H        15.3429569552        0.6073307294       21.3380925785
  C        16.2211806569        2.3603724117       21.9332633792
  C        10.8325691407        7.9893649979       13.6343611435
  S         3.6094645040        1.5238507177       37.3101243304
  C         4.0549781180       -1.5505021082       37.3637692791
  H         3.4963966616       -0.1511737576       16.6472889695
  H         3.7959266679       -0.5392212826       18.2026822719
  C         1.8001523517       -0.9600023875       17.8602390904
  H        15.9098578497        3.3007661837       22.2930650814
  H        16.4877205349        2.4226353189       20.8986216270
  C        17.4244446447        1.8080987742       22.7250332666
  H        10.3880318276        8.9823606215       13.5299959418
  C        11.2781917029        7.6179138629       12.3809847908
  H         3.6502618285       -0.9793731300       38.1939574450
  H         3.5585637203       -2.4710322400       37.2265666488
  C         5.4141599442       -1.9450255951       37.7848799489
  H         1.0312878371       -0.4127763342       17.3526089968
  H         1.5471951592       -1.0938681789       18.8623005552
  C         1.9219827864       -2.2699415771       17.0964553359
  H        17.6812855554        0.7793603227       22.4412666440
  H        18.3076299034        2.4192976955       22.5066779475
  C        16.9793367177        1.7954391657       24.1783444896
  S        11.8699697725        6.0748409104       11.8362636682
  C        11.4447193789        8.7258199309       11.3396464948
  H         5.3171622126       -2.7194010205       38.5515516571
  H         5.9327603279       -2.4265018073       36.9991685747
  H         6.0909037553       -1.0591249851       38.0637990231
  H         1.1155618035       -3.0189551769       17.3454310916
  H         2.8853305623       -2.7854989512       17.4618684924
  H         2.0399374786       -2.1375516088       15.9824559546
  H        17.8307185669        2.0732409537       24.8309058253
  H        16.6630270041        0.8694379144       24.5447049032
  H        16.3112015514        2.5761758507       24.4162395412
  C        12.0625317652        6.8645512536       10.3128079362
  N        11.9075621338        8.1765233593       10.1784142701
  O        11.0591870159        9.8599143239       11.4196021806
  S        12.6247287252        6.0283134458        8.7832678156
  C        12.1269263433        9.1708084189        9.1301737090
  H        12.1959681285       10.1991582223        9.5551754759
  H        13.0984097122        9.0165467367        8.6218365017
  C        10.9813950248        8.9971892656        8.0791212663
  H        11.0983755748        8.0791408671        7.5635020330
  H        10.0824282938        9.0510877214        8.6054000184
  H        11.0869360837        9.8564612168        7.3946818878
  H         4.2942811352        1.0208934637       12.1282814653
  C         3.5577668101        1.7233253622       12.2357278499
  H         4.0764670427        2.6654815206       12.1957154471
  C         2.5873743411        1.6686758823       11.0834487211
  C         2.8506803273        1.4288796431       13.5533783096
  C         3.2699821191        2.0578354911        9.7004766788
  H         1.8501297529        2.5468944596       11.3096245089
  H         2.0153796391        0.7593929209       11.0963604019
  H         2.1743515884        2.2871888207       13.6794707193
  H         3.4742613928        1.3748774697       14.4779797396
  H         2.2329745970        0.5730204899       13.5893044384
  C         4.2944242436        0.9518693786        9.2415383221
  H         2.4278184114        2.1314885937        9.0549602051
  H         3.7019132411        3.0901432953        9.6700987921
  C         5.1140486392        1.2750024391        8.0119362096
  H         3.8042270861        0.0033962003        8.9262470234
  H         4.9720065943        0.7800506087       10.0776501862
  C         6.1974492530        2.2693933716        8.3107044099
  H         4.6003503628        1.5599475538        7.0698944415
  H         5.5713831635        0.3576521721        7.6825858317
  C         7.4643925514        1.5273887355        8.8571167222
  H         6.5558616059        2.8000111167        7.4262658079
  H         6.0246626000        2.9811457453        9.1064034024
  C         8.7666220235        2.3961002211        9.0304219059
  H         7.7277669654        0.7158031362        8.2176027259
  H         7.0870329878        0.9930930219        9.7809855716
  C         8.4112070395        3.7107264000        9.6753243894
  C         9.2887098979        3.1446575325        7.8304017469
  C         9.8906820724        1.6351076700        9.8361673684
  C         8.6678530076        4.8350223410        8.8825877239
  C         8.0420985219        4.0192115907       11.0117513659
  C         9.2709527160        4.5351551037        7.6830900398
  C         9.9041784916        2.4914682914        6.7767984200
  H         9.4822081463        1.3321722890       10.7058775291
  H        10.1526940801        0.7335034862        9.2196156365
  C        11.1833246232        2.4602158452        9.9640206494
  S         8.1674314955        6.3016688214        9.6193391127
  C         7.8336814582        5.4149992570       11.0993683313
  H         7.8745604578        3.2458748987       11.7644153029
  C         9.6451628172        5.1048245990        6.5184481205
  H         9.9672462787        1.3945494296        6.8005303556
  C        10.2848971926        3.0733413778        5.5779418158
  H        10.9986152935        3.5453224318       10.2272220959
  H        11.7170231350        2.6397750368        9.0128034210
  C        12.0699170388        1.8873996200       11.0701559450
  C         7.5413180049        6.0048048206       12.4238480168
  C        10.1479577055        4.4768444407        5.4074810508
  H         9.6365809846        6.1620840307        6.5639711900
  C        10.6043749052        2.6644036306        4.3146981448
  H        13.0240609816        2.4716675313       11.0608590197
  H        12.4926800194        0.8904829889       10.7604374079
  C        11.4702767898        1.9928039648       12.4332488626
  C         7.5905691914        7.3971284172       12.6903129867
  C         7.1415745332        5.1720133248       13.5727993102
  C        10.5679043748        5.0767046327        4.1809304202
  C        10.8638883657        3.7631756243        3.5042106534
  S        10.8735455090        1.1435716269        3.5656142377
  H        10.7595376654        2.8476755823       12.4695309436
  H        10.8171532941        1.0171963303       12.5439278359
  C        12.5538388852        2.2305599844       13.5303386663
  N         8.1166285369        8.3398177101       11.8221025412
  C         7.3732276581        7.9862624229       13.9405149472
  C         6.9331586385        5.7337133647       14.8698932046
  H         7.0471143204        4.1516731953       13.4975594868
  C        11.8658705631        5.9120322654        4.4178770461
  C         9.5344572985        5.9597843362        3.3848290137
  C        11.2607258291        3.3330173869        2.2239420310
  C        11.2814133743        1.9639424464        2.1263513572
  H        12.8341512271        3.2647208694       13.2734101934
  H        13.3987037433        1.5729212723       13.3639963302
  C        12.0228635299        2.0581934570       14.9994632147
  S         7.9727202492        9.8393363844       12.5737080494
  N         7.5355661550        9.3339871224       14.0272288992
  C         7.0671866996        7.1978200680       15.0913135190
  H         6.8437841463        5.0817618644       15.7436490382
  H        11.5404178588        6.8122686816        5.0085005771
  H        12.1513016728        6.3154455123        3.4317252730
  C        13.0196599511        5.1572374238        4.9308933481
  H         9.3762253078        6.9847877513        3.9149054870
  H         9.9830271728        6.1432468328        2.3738525670
  C         8.1677158195        5.3900732793        3.0810162536
  H        11.5186394122        4.0514319498        1.4470417233
  C        11.5579030934        1.3220164676        0.7974295501
  H        11.1352705118        2.6944818375       15.2197528390
  H        11.5240167356        1.0944685743       15.0223961990
  C        13.1208269398        2.1867501966       15.9921345006
  C         6.9164853566        7.8946979976       16.3414514800
  H        12.8893243953        4.7828218360        5.9028992805
  H        13.3461910850        4.3581747086        4.2739110739
  C        14.1824723455        6.1183130527        5.1304670942
  H         7.6061523771        5.3003464247        4.0119225922
  H         8.1879225732        4.3931742403        2.6466583647
  C         7.3292504482        6.3589019216        2.1616847027
  C        11.7227885265       -0.0864680858        0.6391276603
  C        11.7451676306        2.1302987015       -0.4881865477
  H        13.8282834214        2.9930763870       15.7322498786
  H        13.6973169775        1.2662744328       15.9585140118
  C        12.5861772728        2.4839920093       17.4268254208
  H         7.0236754900        8.9562492298       16.3292900969
  C         6.4823318104        7.5153433801       17.6150532001
  H        14.0058012867        6.9041065903        5.8558921418
  H        14.4052232330        6.6330570455        4.1505230955
  C        15.4376068832        5.4295409725        5.5878280835
  H         7.6470778480        7.3886216013        2.4256987363
  H         7.5435720145        6.1674885599        1.0927096586
  C         5.8289279482        6.3149370747        2.3502442679
  N        11.6405711219       -1.0007831335        1.6941161544
  C        12.1050588248       -0.6720502622       -0.5549265858
  C        12.1741675350        1.4914585333       -1.7118473018
  H        11.6123536075        3.2371085955       -0.4906661956
  H        11.8855326020        3.3200443237       17.3668651211
  H        13.4703387646        2.8284461694       17.9777041728
  H        12.2203629740        1.5277825630       17.8606804178
  S         5.9699575456        5.9115277722       18.2039777443
  C         6.4309396232        8.5996493713       18.6218370837
  H        15.4183824994        4.3563263402        5.2615509718
  H        16.3077464544        5.9505101120        5.2093550217
  C        15.5571104807        5.3277647713        7.1445799505
  H         5.7027896313        6.6044309948        3.3332310518
  H         5.4521136185        5.2939349281        2.1408390775
  C         5.1268233869        7.3760826717        1.5078322908
  S        11.7911748099       -2.4860168947        1.0475241768
  N        12.3313143911       -2.0455526842       -0.4073280856
  C        12.4235707344        0.0424100766       -1.7601950904
  H        12.1743388370        2.0340472898       -2.6473857961
  C         5.7750262775        6.6872676052       19.7644119275
  N         6.0080160093        7.9901513985       19.7754506060
  O         6.6828372697        9.8199594375       18.4609229460
  H        15.5805593786        6.3813216525        7.6677793421
  H        14.6778359257        4.7700663179        7.5374293467
  C        16.7302832548        4.5602422504        7.6000977050
  H         5.8071559907        7.9631123279        0.8418803222
  H         4.3951842454        6.8727861968        0.7573014310
  C         4.4167171387        8.5298545123        2.2890671934
  C        12.9451628840       -0.6747540917       -2.9428502698
  S         5.8119343796        5.8305356345       21.2978503908
  C         5.9632182521        8.7785465831       20.9658415501
  H        16.4814121937        4.0762950356        8.5506419261
  H        16.9753874576        3.6136372984        7.0937348811
  C        17.9803601886        5.4356439229        7.8387748832
  H         4.9992434717        8.9145512341        3.0521179358
  H         3.5366813062        8.0675795930        2.7735734792
  C         3.9950760304        9.8059596424        1.5174503642
  H        12.8343780169       -1.7495767090       -2.8980327136
  C        13.4430807512       -0.2212245502       -4.1403869751
  H         5.2324022869        8.2963234204       21.6936305494
  H         5.5447097585        9.7529745871       20.7371225736
  C         7.3086398025        9.0739774471       21.6556292772
  H        18.4575480362        5.0434591228        8.7614537236
  H        17.6355755807        6.3681202769        8.0544609538
  C        18.9540384420        5.3057008974        6.7184947138
  H         3.2388328003       10.3311108438        2.0847468873
  H         4.8806302263       10.4804680475        1.3905388167
  C         3.4893823083        9.4269594625        0.1723243384
  S        13.9832889072        1.3569371138       -4.5593676559
  C        13.5241981893       -1.2378523606       -5.1507714695
  H         7.8607768767        9.8427596936       21.0724943312
  H         8.0347317475        8.2025404365       21.8014543791
  H         7.2489635665        9.5437618664       22.6667608007
  H        18.7537297866        4.5726048059        6.0031622650
  H        19.1278764354        6.3206706425        6.2556789347
  H        19.9333150221        5.0254050116        7.1302941412
  H         3.5010980609       10.3725844183       -0.3498552935
  H         4.0600423951        8.6906854782       -0.4475175640
  H         2.4994861188        8.9657481607        0.3336000254
  C        14.2155046379        0.6464559193       -6.2304942517
  N        14.0547353187       -0.7058140384       -6.2787124845
  O        13.0141718749       -2.3464080665       -5.0842752989
  S        14.6250031067        1.5986481171       -7.6621470001
  C        14.1199865101       -1.4863618306       -7.4441961083
  H        14.2790251315       -2.5258881789       -7.2308612046
  H        14.9636288865       -1.0647800685       -7.9809442590
  C        12.9346931062       -1.3052065142       -8.3740537642
  H        11.9556312744       -1.4712947605       -7.8518691109
  H        12.8983137323       -1.7480672905       -9.3358737610
  H        12.7924770397       -0.3146203074       -8.6673583996
