352
 i =   131400, time =    65700.000, E =        99.8396116442
  H        10.3921368443        4.6692726095       31.5139040087
  C        11.1586079925        5.4363648978       31.7883204272
  H        10.6709229486        6.3676846801       32.0251544015
  C        12.1597123716        5.7568448760       30.6685425508
  C        11.8225761957        4.8972368017       33.0688929304
  C        12.1328546135        4.7387164877       29.4967422511
  H        11.8605980632        6.7335499185       30.2296959721
  H        13.1719394634        5.9129786410       31.0050267118
  H        12.9198319429        4.9145783592       32.9416444755
  H        11.4756569059        5.5709853223       33.9186898421
  H        11.4824294108        3.8986454755       33.2900241562
  C        11.9901719422        5.3464591074       28.0937680828
  H        11.3576514176        4.0386497724       29.5373622721
  H        13.1112261590        4.2166853382       29.5245169675
  C        10.6345801198        6.0140833070       27.7876329314
  H        12.8075323633        6.0073116531       27.8837716440
  H        12.1457978011        4.6276047659       27.3591090468
  C         9.5910079491        5.0907113606       27.1216188503
  H        10.8076009372        6.8807260440       27.1769557095
  H        10.0820711410        6.4767400002       28.6479916629
  C         8.4711840873        5.9485325171       26.3934442126
  H        10.1241382169        4.4072513344       26.4487546072
  H         9.1741233584        4.4671078630       27.9323484603
  C         7.4011100044        5.2037358078       25.5098373387
  H         7.9369897324        6.4586181410       27.2412511027
  H         9.0074015148        6.6855755270       25.7609213272
  C         7.0385203384        3.8668152423       26.2248757142
  C         7.9707165850        4.4735317926       24.2989985624
  C         6.1681257215        6.1089795748       25.1833656159
  C         7.4476530442        2.7590807244       25.4930139560
  C         6.5397198058        3.5331268472       27.4998416485
  C         8.0335175750        3.1154724806       24.2761881903
  C         8.5301126242        5.1360474676       23.1806937204
  H         6.4334166100        6.6775945902       24.2925957371
  H         6.0813925643        6.6724290266       26.0457731760
  C         4.8965248302        5.3541122887       24.7656301196
  S         7.1614250271        1.2803886079       26.4088767364
  C         6.5263986831        2.1838782516       27.6370315279
  H         6.2473711558        4.3553673308       28.1396341983
  C         8.5110825506        2.5395855515       23.1293246200
  H         8.4145660316        6.2318856899       23.0789414271
  C         8.9701436368        4.5212542368       22.0490685991
  H         5.2333714902        4.8409948799       23.8402567691
  H         4.7427504661        4.4607653500       25.3462740568
  C         3.6496483233        6.1913661200       24.5119744052
  C         6.0616551057        1.5153180246       28.9163303505
  C         9.0509397499        3.1948144475       21.9793621724
  H         8.5794103784        1.4536816460       23.0820676210
  C         9.2229290910        4.9339714837       20.7527271138
  H         2.8670304939        5.7424420128       23.8653363506
  H         3.8484880942        7.0727731496       23.8924558812
  C         2.9618089795        6.5962038669       25.8038186458
  C         6.1001841032        0.1084328235       29.1490373660
  C         5.6994480927        2.3647769548       30.1143532432
  C         9.3711857338        2.4639640179       20.6754824061
  C         9.5557626039        3.8020073946       19.9974770567
  S         9.2262424198        6.4433604039       19.9932025777
  H         2.1208364611        7.3290975505       25.6021124330
  H         3.6677703940        7.1696465639       26.3698861108
  C         2.3310786410        5.3751657274       26.5523868871
  N         6.4315559397       -0.8568424012       28.1986132107
  C         5.8379906319       -0.4609061708       30.3691243213
  C         5.3563640732        1.7945614355       31.3312334966
  H         5.6493904260        3.4441534525       30.0536298489
  C         8.2607455977        1.5561366414       20.1590124240
  C        10.7229647256        1.7903531160       20.8758503243
  C         9.8637495275        4.2277445128       18.6678545772
  C         9.6561456810        5.5862959367       18.5204655606
  H         1.5688823938        4.9269179459       25.8867902761
  H         3.0566294546        4.5580244835       26.8115876516
  C         1.6356602921        5.7897135859       27.7766248204
  S         6.6135758852       -2.2955044216       28.9600467845
  N         5.9019039508       -1.8475934067       30.3692771071
  C         5.5354469102        0.3382180162       31.5129329998
  H         4.9909754553        2.3990819885       32.0948917344
  H         8.0673596616        0.8758444199       20.9780069940
  H         8.5259246649        0.8987234397       19.3239436336
  C         7.0268541353        2.4833921828       19.8227177338
  H        10.8441012630        1.1148645162       20.0711380667
  H        10.7379326424        1.1659427636       21.6907032827
  C        11.9715059102        2.6899996270       20.9445213089
  H        10.0426568427        3.5239324567       17.8953116940
  C         9.9016488069        6.3938419887       17.2575191282
  H         1.0333308506        4.9696996953       28.2440334410
  H         1.0064770398        6.6513037034       27.6197208973
  C         2.6329906236        6.1363106249       28.8643152808
  C         5.2480193431       -0.3251155912       32.7595109573
  H         7.2624633205        3.1022988095       18.9091322958
  H         6.8819647719        3.2808845328       20.5747781560
  C         5.7068790605        1.8037922491       19.7275208283
  H        11.8640899493        3.3772922222       21.7773874126
  H        12.0687300315        3.3290129902       20.0409189605
  C        13.2037050002        1.8933160950       21.1426585038
  C         9.8705880691        7.7850005788       17.1352204465
  C        10.2610661566        5.6769530704       15.9827725324
  H         3.6199980180        6.2320735772       28.4468687051
  H         2.3682864193        6.9671219474       29.3900878851
  C         2.9274790699        5.0224969921       29.8435893771
  H         5.3076816991       -1.3854012765       32.6058965518
  C         4.9098565553        0.0360470271       34.0472072220
  H         5.3586947129        1.5494388633       20.8071258787
  H         5.8847251448        0.9122772730       19.1535652381
  C         4.5698766136        2.5038053388       18.9902617772
  H        13.0879926747        1.3155743974       22.0133011964
  H        13.3151496543        1.2334751989       20.2320281301
  C        14.4523036696        2.7936573313       21.2565355289
  N         9.4883004416        8.6621086851       18.1901988103
  C        10.1948779709        8.4210896631       15.9755510646
  C        10.4329572710        6.3730957355       14.7827070988
  H        10.1844844643        4.5635692836       15.8976957996
  H         3.7173986196        5.2791153250       30.5882924970
  H         2.0747682748        4.7859285463       30.4708172168
  H         3.1924920368        4.1305782498       29.3121470128
  S         4.6136870262        1.6215427303       34.6230981536
  C         4.8968309908       -1.0517953133       35.0828651160
  H         4.1309281833        3.3422719414       19.5852292055
  H         4.8391275189        3.0091780488       18.0090154403
  C         3.5188086144        1.4324746469       18.8451251698
  H        14.4618295609        3.3853278971       22.1670282169
  H        14.3460169867        3.4898422044       20.4532642449
  C        15.6604280351        1.9501948890       21.2336712138
  S         9.6393340758       10.1810475345       17.7280580683
  N        10.1988983714        9.8148269862       16.2395244384
  C        10.4545498302        7.8284352081       14.7633774819
  H        10.9106019386        5.8410460546       13.9999628297
  C         4.2776901841        0.8712914993       36.1546203117
  N         4.5379921546       -0.4355805877       36.2655581756
  O         5.1601979389       -2.2532063591       34.8795403848
  H         2.6240259627        1.9694883931       18.8138815071
  H         3.3827856879        0.9997620225       19.9118409505
  C         3.5135878322        0.5463747371       17.6318640491
  H        15.6242837685        1.0530561829       22.0116215470
  H        15.9551632450        1.5376423567       20.2751394576
  C        16.9447788061        2.6378690145       21.7397844310
  C        10.7995821130        8.7106229286       13.7058351639
  S         3.7681138261        1.7449688199       37.6335347804
  C         4.4102343006       -1.0764478533       37.5323108067
  H         3.1974947653        1.0450937489       16.7127872824
  H         4.5015562865        0.1575220516       17.4373790307
  C         2.5359085596       -0.6423763458       17.8885933494
  H        16.6036217670        3.6734229849       21.9850236800
  H        17.5226261710        2.8273122095       20.8622131546
  C        17.6944524186        1.9666001774       22.9363136008
  H        10.7388318975        9.7923881700       13.9355589539
  C        11.3894717115        8.4601112564       12.5212734591
  H         3.5456207672       -0.7517502883       38.0782217734
  H         4.2462072036       -2.1789434458       37.2829205835
  C         5.6885254614       -0.9461851678       38.3263610451
  H         1.6059292889       -0.1692201300       17.9200165613
  H         2.6143860406       -0.9496669023       18.8727015056
  C         2.7139622942       -1.7916851016       16.8990921571
  H        17.9288894128        0.9500164273       22.6486590308
  H        18.5724129063        2.5499654477       23.1031100972
  C        16.8701853427        1.9994753189       24.1880744594
  S        12.0563847213        7.0045191461       11.9166797595
  C        11.4312455712        9.6056975747       11.5765634200
  H         6.5103018143       -0.9777740041       37.6155191605
  H         5.6888545424       -0.0279828666       38.8863152838
  H         5.7855681208       -1.7545354235       39.0720285962
  H         2.6388006607       -1.4907027074       15.7952214776
  H         1.9924318791       -2.5650553756       17.1500310196
  H         3.6746123895       -2.2096799844       17.0479232961
  H        16.3136257352        1.0927763481       24.2788866450
  H        16.1593321807        2.7963448085       24.2621992904
  H        17.4550897214        2.0387962738       25.1297799389
  C        12.2987793556        7.9284282792       10.4043437421
  N        11.9553756053        9.2126791322       10.4073081315
  O        11.0046724092       10.7297580948       11.7586472693
  S        13.0471951371        7.2121839136        8.9318272194
  C        11.9967325773       10.0118237425        9.1369155606
  H        12.0713005783       11.0765926408        9.3280088097
  H        12.9135273336        9.9035845402        8.6044833024
  C        10.8347566448        9.6207310475        8.3113945483
  H        11.0125503473       10.0976519862        7.3470046692
  H        10.5965867102        8.5719247754        8.1048386312
  H         9.9759923409        9.9168792232        8.8412916264
  H         4.3981706839        1.5255930944       12.8528595159
  C         3.8282935474        2.4417310245       12.7094233473
  H         4.4834257611        3.3769497884       12.6401171403
  C         2.9330207686        2.3772958849       11.4241735978
  C         2.9557382057        2.4330941703       13.9013054819
  C         3.8104173551        2.5885366131       10.1949145312
  H         2.2167827157        3.1585211105       11.4009082739
  H         2.4262826732        1.4117830149       11.3268552015
  H         3.4705399365        2.6036781208       14.8211077989
  H         2.2825332083        1.5956516067       14.1593503115
  H         2.4092747295        3.4307681301       13.7990382659
  C         4.6088337523        1.3862920604        9.7712719689
  H         3.1348557958        2.9632398120        9.4462846410
  H         4.4643663640        3.4093188144       10.4631083581
  C         5.3932406361        1.7533891113        8.4814748329
  H         3.8196989685        0.6539076286        9.5260738433
  H         5.3434936003        0.9629581038       10.5024571538
  C         6.5898695821        2.7043281305        8.5436027888
  H         4.6710071194        2.0202055222        7.7365160376
  H         5.6358825678        0.8724757056        7.9770871429
  C         7.8882042375        2.0847103913        9.1037087769
  H         6.8345885062        3.1391551439        7.5805525316
  H         6.2965818225        3.5049191160        9.2120718693
  C         9.1513974534        3.0219464396        9.1448774345
  H         8.1667060771        1.2209738058        8.4643899458
  H         7.6288058922        1.7027995011       10.1019194419
  C         8.6960361573        4.3711821852        9.8703451704
  C         9.4325627707        3.7763651045        7.9146411479
  C        10.3008525310        2.2274913488        9.7712923257
  C         8.8481606988        5.4803123478        9.0326802967
  C         8.2876118176        4.7769818673       11.1565829487
  C         9.3761641170        5.1390706679        7.8078291411
  C        10.0368033862        3.1527292661        6.7818366683
  H         9.8824689550        1.8434453359       10.7247982228
  H        10.4950470606        1.2758824910        9.2016673541
  C        11.6151874526        3.0910436220       10.0058844124
  S         8.4996455438        6.9616298650        9.8626777814
  C         8.1039623067        6.0645154772       11.2587676607
  H         8.2329874572        4.0262501146       11.9048491110
  C         9.8665358149        5.7459215127        6.6087308566
  H        10.0660346267        2.0907853468        6.7843894843
  C        10.4612977414        3.7899695422        5.6044035820
  H        11.2014858841        4.0340874405       10.4405513384
  H        12.0355531016        3.3751447113        9.0006545671
  C        12.5426738642        2.5106791987       11.0742471579
  C         7.7381784119        6.6853489310       12.5726541483
  C        10.3922160699        5.1082619931        5.4653876208
  H         9.9499012427        6.8347994264        6.5638213311
  C        10.9296818811        3.4420889170        4.3470796867
  H        13.5619682639        2.9256600718       11.0028149598
  H        12.6845211726        1.4856712120       11.0422625386
  C        12.0248619012        2.9462955497       12.4994767921
  C         7.5969493357        8.0593625602       12.7777044970
  C         7.2107625105        5.8180905999       13.6508048194
  C        10.7038629478        5.7873131590        4.1870106530
  C        11.0366476320        4.5048594228        3.4912235853
  S        11.1551930292        1.9321333963        3.6794979595
  H        12.3397391290        3.9466788271       12.8292986560
  H        10.9648444518        3.1061556589       12.4785980571
  C        12.3663361452        1.9154154660       13.6078008951
  N         7.8762181203        9.0512265315       11.7937073558
  C         7.2555889549        8.6150578214       14.0124669522
  C         6.8923563710        6.3703693108       14.8709056572
  H         6.9396828616        4.8110460709       13.5838802092
  C        11.8371534586        6.8464314365        4.3067326614
  C         9.5028703949        6.4774845399        3.4931397323
  C        11.4283816741        4.0949147769        2.2464163080
  C        11.5541420200        2.6773909306        2.1905616213
  H        13.2952131632        1.4023484260       13.3272947162
  H        11.5909546237        1.2151814195       13.6834094351
  C        12.4320133958        2.6639037831       14.9236965931
  S         7.7184072847       10.4868623420       12.4783646554
  N         7.1877363494       10.0062722439       13.9814213678
  C         6.9161872338        7.8001658535       15.0996595545
  H         6.5454382726        5.6530646509       15.6681634061
  H        11.5407338459        7.5592760712        5.1319369266
  H        11.9768257152        7.4733391105        3.4467323755
  C        13.1526854221        6.2001894391        4.7492233811
  H         9.0110200031        7.0400858165        4.2655187023
  H         9.7234291902        7.1567957526        2.6104614910
  C         8.4521098562        5.5156170568        2.9336944845
  H        11.5922508780        4.8701089895        1.4832200906
  C        11.8356977024        1.9051430863        0.9693304363
  H        13.4874543389        2.8697276065       15.0385547784
  H        12.0011047906        3.6670297784       14.8185621241
  C        11.8811049554        1.8333615159       16.0662988603
  C         6.6833676028        8.4891464716       16.3735570288
  H        13.0117354590        5.5362002373        5.6012970051
  H        13.4835685212        5.6019588310        3.9074131316
  C        14.3090734652        7.0635588953        5.1460726913
  H         8.2890130879        4.7477176218        3.7376834323
  H         8.7949856785        4.9227233395        2.0637597637
  C         7.1794013365        6.1752338763        2.5643898471
  C        11.8531848187        0.4696639555        0.8884814853
  C        12.0336582021        2.6582374941       -0.2754782082
  H        12.0377165559        0.7642064478       15.7941413380
  H        10.7696691798        1.9820115254       16.2167099874
  C        12.6047895124        2.1512286415       17.3188011210
  H         7.0184526562        9.4916417577       16.4474431099
  C         6.3859076128        8.0269309159       17.6185220911
  H        14.0886299023        7.4495864652        6.1640856079
  H        14.5384924641        7.8989973531        4.4825915217
  C        15.3871664967        6.0541295889        5.2837571940
  H         6.6770064525        6.6335183023        3.4397231272
  H         7.4697843821        6.9926513448        1.9383192564
  C         6.1342291030        5.2520509543        1.8887623963
  N        11.6447678753       -0.4224156523        1.9939560870
  C        12.0414902818       -0.1993956156       -0.3313330587
  C        12.2683076608        1.9692492247       -1.4941092955
  H        11.8313395680        3.6853887719       -0.3472017867
  H        12.5513819281        3.2346737091       17.5739531671
  H        13.6973716142        1.9653041435       17.1710063241
  H        12.1245039701        1.6213334187       18.2465032375
  S         6.1047968227        6.4013625639       18.0689842389
  C         6.2676539670        9.0021974812       18.7187996930
  H        15.0734974437        5.0646097965        5.4513511372
  H        15.8577763353        6.0503605354        4.3142749208
  C        16.3789203345        6.4657195589        6.3554201220
  H         5.3142298049        5.1073134362        2.5770497105
  H         6.4712498227        4.2589474213        1.6682182329
  C         5.5798405437        5.8597756654        0.6507520684
  S        11.6402270761       -1.9236378232        1.3863215523
  N        12.0291670365       -1.5870306745       -0.1985752330
  C        12.3837865627        0.5053279805       -1.5211367037
  H        12.2575622177        2.5066031245       -2.4371351556
  C         5.9325356892        7.0205662808       19.7548462296
  N         6.0509468765        8.3517379019       19.8994703615
  O         6.4718435938       10.2516570288       18.5420333878
  H        16.9106714648        7.3076234256        5.9757423531
  H        15.8622924158        6.7724878347        7.3061072733
  C        17.2992385823        5.4121279698        6.7891201775
  H         6.3294802797        6.2568763962       -0.0893261790
  H         4.9600935102        5.1025678859        0.1160605946
  C         4.6373184896        7.0425894994        0.8933065920
  C        12.7708244751       -0.2351650497       -2.6575646300
  S         5.6726354786        6.0482482694       21.1603642730
  C         5.9496086285        9.0708714288       21.1375579003
  H        16.8310338763        5.0268283889        7.6891474081
  H        17.2434688538        4.6678533421        5.9881993153
  C        18.7406480890        5.9027600934        7.0017889610
  H         5.0478420615        7.5983888597        1.6897364646
  H         3.7430362389        6.5780254165        1.2221159264
  C         4.2768569101        7.8166899164       -0.3749973554
  H        12.4866301025       -1.2773653135       -2.6284455915
  C        13.3259281739        0.1455768545       -3.9331474588
  H         5.2513709035        8.5127712236       21.8586161993
  H         5.5893694748       10.0812762358       21.0798910280
  C         7.3534991279        9.0527159636       21.7688046732
  H        19.1703840193        5.1598266971        7.6647285130
  H        18.7647012602        6.9473330341        7.3602727254
  C        19.6126780848        5.8215362129        5.7069039832
  H         5.1087499818        7.9414821718       -0.9703613353
  H         3.6635238890        7.2662233179       -1.0513041393
  C         3.7129027328        9.1834663652       -0.0381352579
  S        13.9942548638        1.6747047371       -4.3481599838
  C        13.4618724063       -0.8621464133       -5.0188084877
  H         7.5778792117        8.0280326793       22.1240748871
  H         7.4069643152        9.6959786121       22.6615692181
  H         8.1517649683        9.3342377814       21.1330267504
  H        19.4332581041        5.0520882205        4.9977635679
  H        19.3431378009        6.7144527926        5.0500035458
  H        20.6686268946        5.7380578685        5.8986210209
  H         4.2428327880        9.6522329448        0.7253360526
  H         3.6135076639        9.8681406595       -0.9070928425
  H         2.6720265100        9.0186078942        0.3466498498
  C        14.4132578777        0.9557033756       -5.8924178885
  N        14.1739770480       -0.3462131048       -6.0274397815
  O        12.9863044806       -1.9837131073       -4.9412898915
  S        15.1389337316        1.8680333251       -7.1942703331
  C        14.2626577628       -1.1108396850       -7.2934627758
  H        14.4578286954       -2.0817879534       -7.0924273212
  H        15.1851077319       -0.7891141888       -7.7545995120
  C        13.0194960245       -0.7956158036       -8.1233139391
  H        12.1493972627       -1.1272161815       -7.5488019421
  H        12.9428893927       -1.2319744773       -9.1217011737
  H        12.8445314266        0.2768223114       -8.1024349938
