352
 i =    60700, time =    30350.000, E =        98.0308004164
  H        10.6733372552        4.5603638318       31.7152618981
  C        10.4843397149        5.6194003355       31.9370813456
  H         9.3995301542        5.8995932631       32.2069315878
  C        10.8699053611        6.5588467519       30.8768923352
  C        11.0892979445        6.0766639646       33.3016877830
  C        11.2815861061        5.7586902209       29.5715929547
  H        10.2338007983        7.3823835885       30.5909427138
  H        11.7651041877        7.0970251288       31.2599554481
  H        11.1341771403        5.1366435159       33.9249169948
  H        12.1482290192        6.3199436386       33.2914652737
  H        10.5286217521        6.7731028930       33.8563293294
  C        10.0868734875        5.6209593677       28.6673120244
  H        11.7709184176        4.8561410169       29.7900791218
  H        11.9869593443        6.3792121205       29.0967854908
  C        10.4060571875        5.5853189264       27.1619096664
  H         9.6046233473        4.6874396924       28.8504050809
  H         9.2526464433        6.2416588194       28.9423618110
  C         9.3413110057        4.9061020132       26.2894324329
  H        11.2117806137        4.8589750368       26.9004416836
  H        10.6384001083        6.5797479822       26.7217759877
  C         7.9996964462        5.5789143133       26.1857055279
  H         9.6440825018        5.0390016676       25.2614945912
  H         9.3639989306        3.8731080737       26.6022510649
  C         6.9253279878        4.8793773473       25.3049663121
  H         7.6974945416        5.7520431792       27.2380844196
  H         8.2252106751        6.6120794232       25.8348664904
  C         6.6047950609        3.5310058817       25.9737706204
  C         7.3938825581        4.1957811357       24.0635872509
  C         5.6450387932        5.6737233435       25.1310239556
  C         6.9592034706        2.4221662865       25.2091867538
  C         6.3128624189        3.1670411432       27.2914711164
  C         7.4196683165        2.8588439947       23.9524198716
  C         7.9268959108        4.8018836801       22.8681953690
  H         5.8717638912        6.4269487349       24.4005454711
  H         5.4284164352        6.3345788057       25.9362036562
  C         4.4345617237        4.8637066464       24.4988169207
  S         6.6632436148        0.9029597894       25.9737986032
  C         6.3277998392        1.7986436189       27.4385306716
  H         6.1422490335        3.9545855071       28.0373981517
  C         7.8601700629        2.1962134374       22.8874673778
  H         7.9359027797        5.8448251429       22.9330074846
  C         8.3906788767        4.1387241170       21.7496205059
  H         4.7193541536        4.6224190155       23.4665656809
  H         4.3112996741        3.9206891960       25.0628920424
  C         3.1157120878        5.6566357152       24.4237559401
  C         5.9039372067        1.0852318605       28.7220261281
  C         8.3403847838        2.7863930256       21.7093317452
  H         7.8353402086        1.1567212063       22.8512912304
  C         8.8367528664        4.5481009125       20.4768045871
  H         2.3892233758        5.2456735142       23.7009931080
  H         3.5263372026        6.6455375849       24.1343174004
  C         2.4010374954        5.6874256315       25.8110866145
  C         5.9135132756       -0.3242682806       28.9066116981
  C         5.4498021035        1.8939618861       29.8568078281
  C         8.7757744879        2.0350854367       20.4207582812
  C         9.0502718702        3.4235831037       19.6826537479
  S         9.1509028020        6.0507007116       19.7410016779
  H         1.5174535473        6.2097944836       25.7298816782
  H         2.9792850344        6.1768161947       26.5483225093
  C         1.8991076943        4.3514381831       26.3777663857
  N         6.3053321707       -1.2349660511       27.9151392386
  C         5.6180084661       -0.9775063472       30.0687152556
  C         5.1716130496        1.2642063510       31.0590756106
  H         5.2515032070        2.9732804332       29.7993542065
  C         7.5770425193        1.2784526466       19.7042537517
  C        10.0437437800        1.2960141446       20.5026649768
  C         9.5193292730        3.8293367006       18.4064174537
  C         9.5188191826        5.1987098465       18.2871213454
  H         1.3252630430        3.8854950398       25.6066942353
  H         2.7784903818        3.7486967697       26.5909917010
  C         1.0941063493        4.6768798822       27.6147022410
  S         6.1286406286       -2.7939890906       28.5172369885
  N         5.7160651151       -2.4101785173       30.0346125108
  C         5.3014368311       -0.1852203332       31.2381977005
  H         4.8667268107        1.8703282552       31.8507948324
  H         7.2714128267        0.3940532886       20.3155018715
  H         7.9105213285        0.7355932522       18.7971532362
  C         6.2758181946        2.0097163696       19.4332111638
  H        10.3918322360        1.2097652378       19.4684453175
  H         9.8786295359        0.2929545521       20.8299355863
  C        11.0301836453        1.8730503122       21.5963112805
  H         9.7619959672        3.1105036465       17.6783766171
  C         9.8047966303        6.0115331341       17.0793340025
  H         0.5800535161        3.7991547393       27.8437164522
  H         0.3144953775        5.4818388810       27.5306674138
  C         1.9851102236        5.0936355256       28.8099861271
  C         5.0466664378       -0.8059142865       32.5400098621
  H         6.2964085477        3.0363362849       19.7371297806
  H         5.6001219138        1.4787179173       20.1036164660
  C         5.5545733257        1.8593987281       18.0260290875
  H        10.6276141077        1.4577656547       22.5070839458
  H        10.8902237359        2.9209540970       21.7568629264
  C        12.5139676720        1.3520093635       21.3711070764
  C         9.8059056888        7.4316432065       16.9766687070
  C        10.0414217736        5.2795774329       15.7909987496
  H         2.6122165131        4.4153432457       29.2766587489
  H         2.5577623550        6.0189159804       28.5625224785
  C         1.2048600767        5.4030935454       30.1558126158
  H         5.1508764877       -1.9063676825       32.5014741547
  C         4.7770712387       -0.4117700751       33.8175701413
  H         5.8024662656        1.0158307153       17.4781839041
  H         6.0019221134        2.6253194271       17.3427839228
  C         3.9899755941        2.0684670785       18.1215769769
  H        12.5631950167        0.3811935665       21.9111382705
  H        12.6829301966        1.2272506230       20.2996278412
  C        13.4930366916        2.2702617403       21.9870780183
  N         9.4819582941        8.3186516077       17.9573533321
  C        10.0132782070        8.1099759482       15.7668051424
  C        10.1078786765        5.9427500064       14.5730714997
  H         9.9517308516        4.2187646253       15.9094908788
  H         0.5579381197        4.6474935876       30.4361031375
  H         1.9260134724        5.4244869941       30.9014503533
  H         0.7304345678        6.3557512123       29.9174930872
  S         4.5241242953        1.1633134344       34.4695661066
  C         4.6741239857       -1.4865072146       34.9017454299
  H         3.8106097910        2.7109843595       18.9542628989
  H         3.5868793192        2.4267240725       17.1434841951
  C         3.3067520474        0.7453744306       18.5046107468
  H        12.9357074276        2.8833794889       22.7238969251
  H        13.8612183797        3.0757963433       21.2905433970
  C        14.6065042862        1.4106890376       22.7251735480
  S         9.7779709242        9.8670038650       17.4604347528
  N        10.2330827430        9.4438756807       15.9238265710
  C        10.2211519819        7.4125136212       14.4860489638
  H        10.2344421865        5.3003656704       13.6889292959
  C         4.2087112510        0.3931668876       36.0680435803
  N         4.4357499199       -0.9078595249       36.0854364641
  O         4.9593338115       -2.6425369573       34.6506443345
  H         2.4543578934        0.9645411236       19.0462174031
  H         3.9311219361        0.2133296749       19.1857444600
  C         2.9061996004       -0.0584670152       17.2433642186
  H        14.1697662457        0.9560753707       23.6430847888
  H        14.9192611247        0.5891010640       22.1209299483
  C        15.8746797568        2.2126149878       23.0491982131
  C        10.6016792751        8.1467158975       13.3557457486
  S         3.9415861673        1.2537875463       37.6719174439
  C         4.5177141056       -1.8091981438       37.2889493604
  H         1.9427616297        0.3892075666       16.9704794032
  H         3.6594076840        0.1165812832       16.5389880270
  C         2.6823797740       -1.4920487251       17.3892722495
  H        16.3240324703        1.6216677381       23.8334896455
  H        15.5173668924        3.1210210487       23.4719899373
  C        16.7765211831        2.4897174587       21.9646129354
  H        10.6356518340        9.2267543744       13.4137843482
  C        11.1309991202        7.6609004633       12.1299761143
  H         3.6627514103       -1.7705192973       37.9093415543
  H         4.4699982285       -2.8575811016       36.9970818553
  C         5.7889636025       -1.5916717893       38.0152063652
  H         3.6200755237       -1.9812118139       17.4323023779
  H         2.1105797439       -1.8919381751       16.5170955073
  C         1.7468993853       -1.8155481818       18.5572358671
  H        16.2750762370        2.4593952919       20.9652741978
  H        17.2332162723        3.4856549390       22.0187016966
  C        17.9234534854        1.4419074047       21.8696318695
  S        11.5862838284        5.9916603151       11.7740180762
  C        11.3786500131        8.6226788125       11.0152621328
  H         6.1100173247       -2.3194119206       38.8541106310
  H         6.5794043231       -1.9192852688       37.3480660770
  H         6.0168020712       -0.5511878254       38.3241966775
  H         1.4570530276       -2.8780956672       18.5871799374
  H         0.8221280849       -1.2616872171       18.6017878403
  H         2.2863724006       -1.7774181250       19.4638151833
  H        18.8235246800        1.8735311864       21.3537585323
  H        17.6163445420        0.5585069990       21.3872735142
  H        18.2151872303        1.1047257944       22.8946489999
  C        12.2760517000        6.7106850913       10.2495797309
  N        12.0624156788        8.0022760924       10.0372249089
  O        11.1075286581        9.8163889187       10.9712900815
  S        13.0300849174        5.6206929511        9.0249136465
  C        12.5618601884        8.6408959115        8.7784311840
  H        12.7280235469        9.7185541687        9.0631086389
  H        13.4714712924        8.1546568995        8.3434369654
  C        11.4338742596        8.6024361669        7.6962722027
  H        10.4143445510        8.9423391053        8.1288910012
  H        11.6276204452        9.3088759864        6.8820463831
  H        11.2746407325        7.5726711519        7.4492331242
  H         4.1803162879        0.9962014534       12.5668086629
  C         3.5264210510        1.9051380979       12.7363327405
  H         4.2705110987        2.7285911093       12.8273356093
  C         2.6167590998        2.2456188392       11.5156364856
  C         2.6858915630        1.7811412268       13.9898115491
  C         3.5813224889        2.5649905217       10.3947347316
  H         2.0018959639        3.1370207521       11.6117397457
  H         1.9779423955        1.3981049589       11.2530638994
  H         1.9405033362        1.0274155801       14.0741735950
  H         2.0964909454        2.6976968042       14.3207058476
  H         3.3476657542        1.6063180157       14.8548666783
  C         4.1038408363        1.3526800177        9.5900713110
  H         2.9089655981        3.1739203990        9.7630595261
  H         4.4704611302        3.1796210204       10.7779494608
  C         4.7218175290        1.6280012577        8.2129064092
  H         3.2220911969        0.7310964429        9.4323354625
  H         4.7071209489        0.6940853926       10.2318795269
  C         5.9802161942        2.4590253581        8.2492793786
  H         4.0767397957        2.1222722772        7.5467482368
  H         4.8134448183        0.6572074245        7.7175598106
  C         7.3065219557        1.6976552443        8.6616312864
  H         6.1367648174        2.9856652633        7.3597241654
  H         5.7865208286        3.2202019001        9.0439886835
  C         8.5273019373        2.6170959397        8.7883198862
  H         7.5764882249        0.9962469881        7.9622004296
  H         7.1312378139        1.3705360249        9.6887978057
  C         8.1371542804        3.9513128070        9.4329577378
  C         9.0199098534        3.4334549416        7.5832105086
  C         9.6648254121        1.9362302297        9.5355338082
  C         8.5024335006        5.1026874142        8.7399167470
  C         7.6924577918        4.2345792675       10.7020258227
  C         8.9622347466        4.7910283385        7.5399259404
  C         9.5323011336        2.8920836181        6.4204654234
  H         9.3800472077        1.4022232017       10.4021103352
  H         9.9824173747        1.0716418182        8.8866336376
  C        10.9027234907        2.7791486377        9.8721895519
  S         8.1148052418        6.5397024237        9.6105097843
  C         7.6368574515        5.6258855675       10.8991732047
  H         7.3019082772        3.3885610004       11.3140808756
  C         9.4660359579        5.5193924590        6.4619355599
  H         9.6837877929        1.8317894828        6.4394262142
  C         9.9554178507        3.5104290443        5.2736594842
  H        10.6858417233        3.7487445473       10.2743566490
  H        11.4959790047        3.0160092479        8.9763202381
  C        11.8982900151        2.1101344616       10.8432885675
  C         7.2470468272        6.2472604280       12.1810929216
  C         9.9316177181        4.8799475636        5.2523985657
  H         9.5158753398        6.6170307997        6.4714576890
  C        10.4042295585        3.0892471258        4.0342407579
  H        12.7553912669        2.7524049083       10.7808287350
  H        12.3056887008        1.1508172797       10.4516927015
  C        11.4090804475        2.2628059499       12.3019050751
  C         7.4194894912        7.5939628469       12.5209573593
  C         6.8160909639        5.3233845646       13.3020836932
  C        10.4920660106        5.5086126785        4.0752468143
  C        10.6621664553        4.1814363149        3.3139281043
  S        10.8179191113        1.5651680350        3.2928176930
  H        11.2230771099        3.3168632189       12.4355479142
  H        10.3368160426        1.8162438129       12.4127096224
  C        12.3705533479        1.7828856423       13.3515138510
  N         7.8146679912        8.5642470971       11.6648894070
  C         7.1297798352        8.1017230596       13.7762549139
  C         6.6448557992        5.8789252050       14.5863044698
  H         6.6626770858        4.2684054041       13.1834088672
  C        11.8068334063        6.2090414115        4.5572341445
  C         9.4861539233        6.3651188566        3.3582996491
  C        11.0798899828        3.8244380336        1.9612475762
  C        11.1659952174        2.4617488285        1.8014022830
  H        13.3112534597        2.3527907958       13.2754405504
  H        12.7769842823        0.7447938314       13.2048654176
  C        11.8642488236        1.9421628208       14.8615761559
  S         7.8157715384       10.0050445155       12.4746427534
  N         7.3746557436        9.4955434349       13.8824769816
  C         6.7469429002        7.3115609074       14.8393136247
  H         6.4733302975        5.1772506956       15.3863765773
  H        11.6622562235        7.0267177516        5.2563671616
  H        12.2279222536        6.7395409130        3.7350573071
  C        12.8993834681        5.3789343671        5.2028665012
  H         9.1250404562        7.0565314870        4.1129902095
  H        10.0666727256        6.9730960950        2.7065249383
  C         8.4047988846        5.6548358393        2.5145914646
  H        11.1967086745        4.5599228077        1.2349449516
  C        11.4747972629        1.7483560463        0.5425494664
  H        11.3963832754        2.9575571915       14.9596402825
  H        11.0400373063        1.2562318760       15.1584662522
  C        12.9982128009        1.7769321683       15.8273227206
  C         6.6492948266        7.9759323851       16.1358149772
  H        12.6332808166        5.2190577510        6.2487927773
  H        12.9752001162        4.4875737420        4.7353193704
  C        14.2037672993        6.0920973223        5.1052296683
  H         8.0166763900        4.7866893354        2.9909914007
  H         8.8086955516        5.2544810281        1.5707643720
  C         7.2344941134        6.5356150122        2.2320053989
  C        11.6790355778        0.3315827646        0.3934242331
  C        11.5566711730        2.5247373206       -0.7317921510
  H        13.9021703342        2.3578781960       15.4935537974
  H        13.2135115621        0.7284670055       16.0266581013
  C        12.8465234439        2.3356894147       17.1796037744
  H         6.7342385830        9.0320689083       16.0581642275
  C         6.4108083961        7.5351948635       17.3996766115
  H        14.2033257375        7.0917135575        5.4536676211
  H        14.4185875802        6.2506153634        4.0585508890
  C        15.3865339763        5.2603303674        5.5871497016
  H         7.0005726444        7.1651709075        3.0867670508
  H         7.5544682958        7.2945382526        1.5039488952
  C         5.9437688428        5.8698216654        1.7707694152
  N        11.5011477772       -0.6525704559        1.3761038836
  C        12.0013460981       -0.2418063507       -0.8205031370
  C        11.8330117263        1.8907943650       -1.9643303564
  H        11.3225663009        3.5710735317       -0.8036782693
  H        12.5252834256        3.3553162806       17.2081888793
  H        13.8172645706        2.4896879380       17.5948600875
  H        12.1859128956        1.7408841362       17.8320690668
  S         6.1604256773        5.9539738116       17.9017251427
  C         6.2559999361        8.6011571461       18.4241062104
  H        14.9973464695        4.4391812094        6.2567441632
  H        15.8401362627        4.8385117782        4.7478189930
  C        16.2889427556        6.0981874511        6.3425101728
  H         5.6999779816        5.0743098746        2.5218227937
  H         6.3040548983        5.2096911148        0.9434997715
  C         4.8020017029        6.7691924001        1.2058260710
  S        11.7350811407       -2.1113177034        0.7976771640
  N        12.1312424856       -1.6584668629       -0.6880418645
  C        12.1372965530        0.4390283860       -2.0303432146
  H        11.8091248156        2.4464482896       -2.8932586643
  C         5.9360227638        6.6298676065       19.5170434932
  N         5.8764243910        7.9909526444       19.5342095179
  O         6.2168385692        9.8007976157       18.1969670142
  H        16.8669473173        6.6819954372        5.6243819691
  H        15.8057020174        6.7576565648        7.0090273133
  C        17.3564207601        5.2995305340        7.0739032734
  H         5.0221326703        7.4465433228        0.4013099925
  H         4.2199866879        6.0540914721        0.6425330540
  C         4.0261260279        7.4999961359        2.3264207107
  C        12.5733456331       -0.2103119884       -3.2098944067
  S         5.2546013166        5.8036082882       20.9230721340
  C         5.6627274332        8.8051192127       20.7846239123
  H        17.1198587204        5.0225465905        8.1103320522
  H        17.4121040372        4.3061286933        6.7442767209
  C        18.7232632159        5.9988583671        7.0862105803
  H         4.7844743972        7.5717464528        3.1019788435
  H         3.2952988432        6.8637899493        2.7564090859
  C         3.5740129763        8.9549601253        2.1786651885
  H        12.2671140631       -1.2027479796       -3.2309910696
  C        13.1510246889        0.2172247353       -4.3414665324
  H         5.0089164185        8.3000065815       21.4755799597
  H         5.1219685603        9.8122217534       20.8176218694
  C         6.9523817348        8.8611129614       21.6114716504
  H        19.3586093048        5.6315843614        7.8729859647
  H        18.6594511105        7.1033177621        7.3680415282
  C        19.4372352580        5.6348134151        5.7655052085
  H         2.5955911242        9.1197977129        2.5813612759
  H         4.1237492543        9.6584488626        2.8068555667
  C         3.4566392827        9.4857659879        0.7406981903
  S        13.7955869338        1.8284103315       -4.7396148053
  C        13.3582195715       -0.7353465245       -5.4133354311
  H         7.0800929119        7.8315528974       22.1182382933
  H         6.8912035945        9.5772135928       22.3565961082
  H         7.8723922598        8.9089342478       20.9721441002
  H        19.2507579690        4.5842176167        5.4991349679
  H        18.9878329120        6.3870109261        4.9869079446
  H        20.4951246882        5.8751549928        5.8802850909
  H         2.7752240768       10.3087491963        0.6431901129
  H         4.4320276624        9.8978159192        0.4518957475
  H         3.2230885685        8.6413998901        0.0773897013
  C        14.3026840729        1.1423615032       -6.2431225419
  N        14.0296020184       -0.1329434568       -6.4439640660
  O        13.1005175008       -1.9224624376       -5.3692720912
  S        15.2482140701        1.9557970190       -7.5007341587
  C        14.1842270760       -0.9474333182       -7.6982493653
  H        14.6525985281       -1.8790608361       -7.5275995084
  H        14.8731167624       -0.4850198877       -8.3862137597
  C        12.7870636395       -1.0607421052       -8.4288523287
  H        12.1794236578       -0.2006424540       -8.1168802124
  H        12.3081175473       -1.9517008944       -8.0284664065
  H        12.7897158816       -0.9705656141       -9.5218728841
