352
 i =     5500, time =     2750.000, E =       178.1770739551
  H        12.3267986402        6.0812628187       31.7999049263
  C        11.2740005610        5.6557464940       32.0096859226
  H        11.4437166839        4.5711023417       31.9878563432
  C        10.3585383674        6.0244835789       30.9794893435
  C        10.8565728180        5.9317710518       33.3898119487
  C        10.4696508050        5.2291100419       29.7301839185
  H         9.3679316700        6.1195641094       31.4510162752
  H        10.4809762742        7.0380235481       30.7458882360
  H        10.2446033244        6.7702627432       33.5012434386
  H        10.3848219488        5.0512985170       33.9199685954
  H        11.6976091360        6.0534656614       34.0508775554
  C        11.0238284820        6.0925414752       28.6622019707
  H         9.4488699210        4.8875410740       29.4807060651
  H        11.0613796815        4.2477786442       29.9856142851
  C        11.0920713714        5.4888900400       27.3120621918
  H        10.3444106342        6.9383295524       28.6694300051
  H        12.0316116146        6.3155318467       28.8873644457
  C         9.7608591776        5.0081794446       26.6725502795
  H        11.9151307928        4.7333697805       27.3223531188
  H        11.3078510924        6.2046783561       26.5454142175
  C         8.7103764233        6.0027695527       26.1207387419
  H        10.1082150687        4.5527863086       25.7663471459
  H         9.4441416979        4.1884295687       27.2484997109
  C         7.6557559239        5.1607528936       25.4851043202
  H         8.3660187949        6.6142805685       27.0482348254
  H         9.1870622595        6.5456727494       25.2534962097
  C         7.2233815880        3.8205399272       26.1388988229
  C         7.9341144160        4.5184571412       24.1425441518
  C         6.3278296042        6.0891067243       25.3995094269
  C         7.2645971936        2.7476779297       25.2903201460
  C         6.6252646496        3.5002275518       27.4291907751
  C         7.8696762145        3.1268592452       24.1335198451
  C         8.5714764670        5.0549966003       23.0460350187
  H         6.5901657380        6.8878175311       24.7481886222
  H         6.3046388442        6.6528074922       26.3911288877
  C         5.0829449268        5.4212486307       24.7352632428
  S         6.9033846052        1.2367015779       26.1187160437
  C         6.5396809744        2.1756736954       27.5762465266
  H         6.2924275699        4.1548989210       28.1641866267
  C         8.2060672864        2.4429034463       22.9892273402
  H         8.7171731331        6.1367888762       23.0218144131
  C         8.7405257316        4.3836326949       21.8225141956
  H         5.3230508176        5.1965033910       23.7972232799
  H         4.6184561945        4.4959715160       25.1835907489
  C         3.8786887245        6.2414329630       24.6411672166
  C         6.0597561259        1.3930491623       28.7677151394
  C         8.6505230272        2.9989306080       21.7849388002
  H         8.0902256692        1.3972782261       22.9585524502
  C         9.1835943306        4.7096181424       20.5402677595
  H         3.0909024827        5.6607160102       24.0999070264
  H         4.1914129626        7.0268338892       24.0830211819
  C         3.1982591259        6.5592460239       25.8860587088
  C         6.0487685504       -0.0140352260       29.0109302636
  C         5.5929749214        2.2675987900       29.9783131076
  C         9.0683780171        2.3386712520       20.4721186662
  C         9.2782814000        3.6013644861       19.6959295201
  S         9.5339716992        6.1689890144       19.7833942162
  H         2.4290274709        7.3774710062       25.7189706204
  H         3.8573948608        7.0022425072       26.6420126425
  C         2.2784961945        5.4022237760       26.4504388501
  N         6.4915464515       -0.9957543808       28.0893259845
  C         5.7105107821       -0.5415783559       30.2285079074
  C         5.2014343103        1.6890068905       31.1653793406
  H         5.5639633582        3.3374059173       29.9036279291
  C         7.9335380876        1.4514712493       19.7804208685
  C        10.3797847629        1.4742888166       20.6719945283
  C         9.4674992854        3.9641746664       18.4050066108
  C         9.6873179491        5.2770972601       18.2692660957
  H         1.3615408857        5.2751319613       25.7865136237
  H         2.7664866491        4.4353447630       26.5296202791
  C         1.7529322458        5.4951216562       27.9034104692
  S         6.3064604821       -2.3788469218       28.8147452266
  N         5.8436210012       -1.9227480415       30.2737864523
  C         5.3335447674        0.2167549478       31.3510101118
  H         4.8050662228        2.2711693888       31.9466250868
  H         7.4638593118        0.8401857990       20.6547774289
  H         8.3732395387        0.8036198727       19.0147900725
  C         6.7888554039        2.2715417886       19.1674120032
  H        10.6552706636        0.7736781373       19.8872086456
  H         9.9347962415        0.8561592162       21.4355334002
  C        11.5769032874        2.2920458517       21.0357520877
  H         9.6226383903        3.2573739896       17.6656579058
  C        10.0929114523        5.9888933999       16.9810655038
  H         1.1612381836        4.5465921396       27.9948262166
  H         0.9900848443        6.2757913795       28.0274736799
  C         2.8986938972        5.6010489388       28.9458047341
  C         5.0070359386       -0.4073284611       32.5336041914
  H         7.0007243062        2.8967677266       18.3073328409
  H         6.3801698485        2.8821621623       19.8769162823
  C         5.6132191268        1.4538268934       18.7324778461
  H        11.2687244407        2.9281583003       21.9384130861
  H        11.7833724959        3.0896513304       20.3272097089
  C        12.8068597501        1.3998363769       21.2326202240
  C        10.0097741455        7.3476173372       16.8210560508
  C        10.2439658779        5.1847969658       15.6792561291
  H         3.5016762311        4.7109096003       28.7131111870
  H         3.3745883987        6.4910505475       28.8071638462
  C         2.3340415736        5.6848006435       30.3124524439
  H         5.1736500862       -1.4631653884       32.5763531084
  C         4.6611532029       -0.1063871386       33.8157350709
  H         5.2440991890        0.8751315066       19.6015900591
  H         5.9229629595        0.7091905073       17.9462323379
  C         4.5111213369        2.3618219374       18.3527919437
  H        12.6490532693        0.8112290475       22.1732990957
  H        13.1347281272        0.7700283216       20.3726644032
  C        14.0262606719        2.2692084390       21.4558997907
  N         9.6325374267        8.2668490510       17.8155994668
  C        10.2770733304        7.9794830067       15.6503252174
  C        10.4786804647        5.7811870337       14.4897279900
  H        10.2848552624        4.0310738044       15.6400526852
  H         3.0080623683        5.9476427032       31.0837362214
  H         1.4816205231        6.4285802305       30.4346007931
  H         1.8845057691        4.7351114656       30.5447876518
  S         4.2404238064        1.4255493436       34.3843288581
  C         4.7498641543       -1.1795586590       34.8215903229
  H         4.5338862845        3.2205135577       18.8792198206
  H         4.6308948024        2.7991804088       17.3925970487
  C         3.1729805969        1.6175245928       18.3121833916
  H        14.0913383483        2.9679972872       20.6482749837
  H        14.8007551090        1.4959283341       21.3484955784
  C        14.0672356882        2.9823482321       22.7659922672
  S         9.6808331515        9.7174126164       17.1288290634
  N        10.1207558178        9.3664634755       15.5927102272
  C        10.5484753502        7.3184151966       14.4577390371
  H        10.7092561361        5.2291347632       13.5480736649
  C         4.0746905628        0.6585493698       35.9612397873
  N         4.3082779238       -0.6606451015       35.9614959859
  O         4.9965367597       -2.3524111552       34.5345654297
  H         2.4659969921        2.2662465917       17.9035363371
  H         2.9597618056        1.1254926470       19.3253645774
  C         3.0114967206        0.4729309038       17.3299206482
  H        13.2947228968        3.8242044693       22.7822562466
  H        13.8277074204        2.3658012666       23.6621127507
  C        15.5470622389        3.4957330707       22.8973818582
  C        10.9085826692        8.0353959497       13.2822879809
  S         3.5373224438        1.4716217221       37.4436585008
  C         4.2946222703       -1.4273482478       37.2767479976
  H         2.0442950943        0.4913021351       16.7769239310
  H         3.8617662296        0.4052817666       16.7027917452
  C         2.8854982258       -0.8897958883       18.1018621698
  H        15.5206153643        4.4445330641       23.5501566755
  H        15.6763582684        3.9552009584       21.9238827075
  C        16.5161581112        2.3788744710       23.3712308957
  H        11.1021933472        9.0318509396       13.4632532865
  C        11.5228583583        7.7846084086       12.1133347631
  H         3.3660312342       -1.2726470300       37.8520983829
  H         4.2137779086       -2.3491882321       36.9301570417
  C         5.6392551461       -1.4332813646       38.0629509305
  H         3.7302175947       -1.2027581139       18.6552332609
  H         2.6949423088       -1.6172208314       17.2543723118
  C         1.6433016524       -0.7976312276       19.0091937595
  H        16.7622429377        2.5400457071       24.4247781873
  H        16.0497133891        1.4462483215       23.5033294959
  C        17.8279253559        2.3449945539       22.6764647997
  S        12.2288331414        6.2127519202       11.6322279852
  C        11.5096570790        8.8656923550       11.1027160229
  H         5.4169411120       -2.2436618548       38.8442503286
  H         6.5228291990       -1.4156420080       37.3961352418
  H         5.7028630808       -0.5438798764       38.6192297110
  H         1.8995080476       -0.8788208103       20.0407593291
  H         0.9596848702       -1.5731864230       18.7353967827
  H         0.9931974383        0.0463577078       18.9732098138
  H        18.4514908946        3.2564797425       22.7845307601
  H        17.7837078868        2.2732402025       21.5050070256
  H        18.3287072945        1.5241529892       23.1838638979
  C        12.4494891817        7.0490789756       10.0793989959
  N        12.1997097626        8.3694363577       10.0385640186
  O        11.2346560675       10.0169019314       11.3474898170
  S        13.0545822938        6.2543221618        8.6090080050
  C        12.1903992319        9.1622954287        8.8184161980
  H        12.4748054868       10.1315531751        9.1243150765
  H        12.9376873551        8.7756767196        8.1202733589
  C        10.9219722251        9.2353858592        7.9755576371
  H        10.1969359183        9.8227774552        8.5043948507
  H        10.9414773990        9.6076400240        6.8827963200
  H        10.6329363336        8.1975178694        7.9065406760
  H         4.8291366584        1.5002550947       12.6715482685
  C         3.9988698636        2.2585996651       12.8423345629
  H         4.4714854952        3.1476733136       13.0835405805
  C         3.2765727409        2.4346880732       11.5686202192
  C         3.0893438507        1.8050374021       13.9957826334
  C         4.1275976051        2.7503372241       10.3605457281
  H         2.4906409509        3.1894036691       11.6721563824
  H         2.7682811801        1.5585004447       11.4328272566
  H         2.5461433012        0.9573605659       13.8432921173
  H         2.3522006248        2.5418104170       14.1389575459
  H         3.5807959293        1.6653638697       14.8969475302
  C         4.7250784603        1.4760273401        9.7483022197
  H         3.4479657859        3.0532063196        9.5591760268
  H         4.7678529092        3.5845150267       10.5957116784
  C         5.4217999840        1.5836684289        8.3202732902
  H         4.0063510222        0.7460764991        9.5577339104
  H         5.3964848591        1.0010929590       10.4831168223
  C         6.7468800438        2.4073567953        8.5317789572
  H         4.7477892683        1.8605809973        7.5344542411
  H         5.8622513622        0.6487583197        8.1111949062
  C         8.0769997983        1.8761870012        9.2289913712
  H         7.0477024091        2.6484493031        7.4183274133
  H         6.5613460907        3.3484069829        8.9984426623
  C         9.3360488920        2.7293074127        9.2622201994
  H         8.2589334118        1.0044056757        8.5947447670
  H         7.8648988551        1.5546820044       10.2799348523
  C         8.9172700443        4.0406680451        9.9993927703
  C         9.6418901172        3.3963981250        7.9548300386
  C        10.4519123688        1.9981500539       10.0173944346
  C         9.1100835518        5.1343639762        9.1424102088
  C         8.4598773584        4.4283344168       11.2251356043
  C         9.5712089326        4.7733092214        7.8854678763
  C        10.0548289179        2.6821446431        6.8843921339
  H        10.1750119780        1.5978273562       10.9620443334
  H        10.7719766891        1.2101148409        9.4901487688
  C        11.7633362597        2.8339422550       10.2093881238
  S         8.3972844959        6.5643342408        9.7986015391
  C         8.0473787655        5.7034582983       11.2240580908
  H         8.2968177683        3.6837287710       12.0032409593
  C         9.8122591805        5.3285614060        6.6215523899
  H        10.2258160670        1.6165667318        7.1234168375
  C        10.4436321582        3.2211253517        5.6926757101
  H        11.5592611249        3.8240398098       10.5004285542
  H        12.1888125614        2.7123194003        9.2119527054
  C        12.6170713336        2.3343221412       11.2799687959
  C         7.5343298320        6.4387915369       12.4414476968
  C        10.1360759411        4.5747390659        5.4540528107
  H         9.7018897506        6.4037814554        6.5558192207
  C        10.8210696948        2.8243422640        4.4832683775
  H        13.3651015435        3.2016091202       11.3529177129
  H        13.0299272043        1.4212926819       10.9996194865
  C        12.0355243845        2.2874121810       12.6703288380
  C         7.6518904059        7.7905694215       12.7969820183
  C         6.9358157081        5.6260756747       13.5352548238
  C        10.4977054781        5.2422504092        4.2315993415
  C        10.7632298643        3.8564079154        3.5737064479
  S        11.1062952312        1.3018277009        3.6810834096
  H        11.5915024486        3.1915221761       13.1252480885
  H        11.3242327893        1.5406107884       12.5610338780
  C        13.1299410015        1.8913978824       13.6919657219
  N         7.9995396696        8.7323202473       11.8159469039
  C         7.3115416841        8.2762676062       14.0081334535
  C         6.4646211157        6.1110831026       14.6912940298
  H         6.7046167823        4.6220375731       13.2136237480
  C        11.7963475785        6.1050349986        4.2888916339
  C         9.2767485089        6.0650448303        3.6187586580
  C        11.0587181806        3.4396749220        2.2055279407
  C        11.2133865791        2.0595861307        2.1586202372
  H        13.9054020100        2.6180377285       13.8131415469
  H        13.7834614032        1.0216040652       13.3646218016
  C        12.5115872710        1.6422843262       15.0973763563
  S         8.1122379668       10.1360556387       12.5170622671
  N         7.6546207547        9.7177373816       14.0093361237
  C         6.7024094441        7.5448079980       15.0686302888
  H         6.0779529590        5.4311887054       15.4721571130
  H        11.7785677640        7.0469297850        4.8570726637
  H        11.8820259885        6.5667868861        3.3399710302
  C        13.1019686725        5.3576271841        4.5622279476
  H         9.0342201635        6.9882781600        4.0737514324
  H         9.5161233867        6.3868149717        2.6299849609
  C         7.9636353825        5.2650412357        3.3034028620
  H        11.0328944474        4.1955805711        1.4850105260
  C        11.5767068842        1.3753342604        0.8278725784
  H        11.9292665668        2.4557759473       15.2390970142
  H        11.6301503472        0.9609189602       15.1936388494
  C        13.4254138358        1.7740923855       16.3260196067
  C         6.6118910951        8.1764004515       16.2942667528
  H        12.9841710722        4.7641841560        5.5134230083
  H        13.4385816595        4.5541933706        3.7762059486
  C        14.2546585659        6.1164769654        4.8943978112
  H         7.6796843246        4.7953952682        4.2682032680
  H         8.3055092825        4.5804960596        2.5881138908
  C         6.9216824930        6.1946667478        2.5139838622
  C        11.7564871658       -0.0375190321        0.6482388205
  C        11.6431732146        2.1739828592       -0.4002296999
  H        14.4442606574        2.0706655445       15.9897184271
  H        13.6194591378        0.8378467302       16.7956205702
  C        12.9474934136        2.6672265007       17.4352814223
  H         6.7123852498        9.2409339230       16.1385516993
  C         6.3468795984        7.7356380640       17.5236373957
  H        13.9438605301        6.8409828078        5.6301201075
  H        14.7867782884        6.4878542322        4.0179786346
  C        15.3333972001        5.2451294474        5.6070410322
  H         6.9990017458        7.0920121504        3.2059680530
  H         7.3905482461        6.2895202240        1.4642510154
  C         5.4727941804        5.6934868805        2.4144770879
  N        11.5409220842       -0.9583415696        1.6692414228
  C        11.9097510027       -0.6417510905       -0.5438820768
  C        11.9388531934        1.6145865825       -1.6397554104
  H        11.5652887252        3.2478319648       -0.4656774608
  H        11.9414136838        2.3533684597       17.7333091287
  H        13.0396638084        3.7324588629       17.2888639516
  H        13.5764841507        2.4649937417       18.3842267185
  S         6.1163632594        6.1182607006       18.0765247294
  C         6.3074387433        8.8241743058       18.5599727560
  H        15.0911698730        5.1340113101        6.7207258933
  H        15.3040868393        4.2260301754        5.3153392005
  C        16.8069705855        5.6765801853        5.4507087518
  H         5.1188346534        5.3794353775        3.4379930182
  H         5.6036864755        4.8186332968        1.8397972732
  C         4.6325178570        6.6235361383        1.5073121543
  S        11.7075601102       -2.3631909350        1.0349278237
  N        11.9820425952       -2.0088366448       -0.4866801528
  C        12.1485421121        0.1271689862       -1.7523719664
  H        12.0321540172        2.4715782916       -2.3693428604
  C         5.9144056375        6.8993104792       19.6063342578
  N         6.0809824892        8.2024062561       19.7111684177
  O         6.3873779417       10.0709247716       18.3705838320
  H        17.1671925281        5.5122289728        4.4250370421
  H        17.0359213250        6.6723095215        5.5619440145
  C        17.7120796880        4.9795405552        6.3835084322
  H         5.1153579182        6.7886275655        0.5492278206
  H         3.6831450669        6.0026854410        1.3164803696
  C         4.2244553490        7.9517455520        2.1603944562
  C        12.5164443219       -0.5226643477       -2.9640857060
  S         5.5034220949        6.1528752603       21.1387161404
  C         6.0640442480        8.9755141850       20.9660407282
  H        17.2398332287        4.6816013358        7.3066413945
  H        18.1140030312        4.1822706710        5.8627138651
  C        18.7872561665        5.7598900180        6.9452530735
  H         5.1611429568        8.6106242207        2.3306396741
  H         3.7365237807        7.8318671684        3.1819464921
  C         3.3171358930        8.7491075017        1.3266250074
  H        12.4568849919       -1.5905812646       -2.9554434813
  C        13.2091245976       -0.0661879741       -4.1214335312
  H         5.2016242087        8.7325989986       21.6481532243
  H         5.9656944098       10.0736433001       20.8730008790
  C         7.3033380547        8.8484970894       21.7996943995
  H        19.2985261874        5.2579846317        7.7388261796
  H        18.4817841839        6.5856181264        7.5017165386
  C        19.7669729980        6.2523538158        5.8739873216
  H         3.3735935112        8.3425840447        0.3222018175
  H         2.2420116850        8.6132286794        1.4575093220
  C         3.5350266706       10.2609670070        1.0366103186
  S        13.6991031187        1.4958174979       -4.3959416461
  C        13.4714387290       -1.0807367078       -5.0606280995
  H         7.8113020141        7.8699143542       21.8036248145
  H         7.0938460770        8.9512978290       22.8109212472
  H         8.1212047511        9.6625610954       21.7097842748
  H        19.4235118871        6.9516141078        5.1702079637
  H        20.6979144845        6.5510217304        6.4669629212
  H        20.1625920924        5.4198199460        5.3296156039
  H         2.9720563902       10.9891042778        1.7008539212
  H         4.6093422531       10.4491564451        1.0194360219
  H         3.3063685728       10.3753667818       -0.0735708218
  C        14.3331363060        0.8495539424       -5.9166678168
  N        14.1829918834       -0.4819234158       -6.0145436830
  O        13.0873409987       -2.2872926598       -5.1535609308
  S        14.9522729431        1.7733258684       -7.2194648383
  C        14.3552623547       -1.1463625309       -7.3578154701
  H        14.3670378845       -2.2417180269       -7.0938759783
  H        15.2408756895       -0.9190777135       -7.9375090444
  C        12.9797303107       -1.1272122641       -8.1204861066
  H        13.2433567704       -1.0474362554       -9.1656122949
  H        12.5295459870       -0.1313087614       -7.8065800643
  H        12.4469328441       -2.0157556546       -8.1197133923
