352
 i =    87700, time =    43850.000, E =        98.7987396656
  H        12.3262518825        7.1761149236       32.9326460314
  C        11.9623164997        6.1136199102       32.6319465292
  H        12.9168114014        5.6948221134       32.2871423944
  C        10.9246162504        6.2613809030       31.4851589123
  C        11.3921293225        5.5211209587       33.8770184307
  C        11.4035233087        5.9376878906       30.0453965919
  H        10.0394065197        5.6140238102       31.6794232739
  H        10.5826217592        7.2741820893       31.3863469609
  H        12.1444009788        5.0060278517       34.4531928851
  H        10.9675512170        6.3411154766       34.4726358814
  H        10.5209891609        4.8501272452       33.5738649630
  C        10.2789740026        5.8362816165       28.9365219782
  H        12.0164947318        5.0448316810       30.0786487034
  H        12.1919575430        6.7276855836       29.8337198920
  C        10.8364719489        5.8035971686       27.5540153130
  H         9.7010151661        4.9055414672       29.0233457862
  H         9.5385288747        6.6349306120       29.1830047213
  C         9.7613854935        5.2844628467       26.5963676597
  H        11.6599064070        5.0033728842       27.5256236747
  H        11.1672709046        6.8779590772       27.3137206769
  C         8.5122794909        6.1381380572       26.3802189655
  H        10.1426503771        5.2331414915       25.5888503495
  H         9.5092819403        4.3564721596       26.9592679258
  C         7.3115722798        5.2840816256       25.7945906002
  H         8.2599025715        6.6612075551       27.3537192628
  H         8.5022845137        6.9333748864       25.6653583047
  C         6.9197565412        3.9883465998       26.5321329321
  C         7.6866218623        4.4832370952       24.5803511147
  C         6.0779475778        6.1751162992       25.5392789610
  C         7.1342255744        2.8346372764       25.7976991270
  C         6.3362315480        3.6831204976       27.7839756714
  C         7.6937424090        3.1293810407       24.5124271392
  C         8.0892283366        5.0613960218       23.3713151282
  H         6.3098420597        6.8956518793       24.7516352601
  H         5.9056098364        6.7784929672       26.3642464017
  C         4.7865414138        5.4678109941       25.0142473895
  S         6.8488614879        1.4123439586       26.6548062285
  C         6.1885065341        2.3369713327       27.9755649252
  H         5.9785449067        4.5683549243       28.3357428803
  C         8.0719636001        2.5090779230       23.3427079836
  H         8.2447251773        6.1479249510       23.3799291397
  C         8.5793307890        4.4616396562       22.2587055000
  H         4.9279848208        5.0248339708       24.0632238457
  H         4.5910920133        4.6027585915       25.6205630134
  C         3.5444669822        6.2868361580       24.9806116027
  C         5.7059400517        1.7252183527       29.1959499078
  C         8.5659217299        3.1171101872       22.1772821515
  H         8.0265379050        1.4405603051       23.3414211150
  C         9.0130779800        4.8529324063       21.0227054064
  H         2.7983919086        5.8532401158       24.3239997866
  H         3.6019764164        7.2887774667       24.5354027795
  C         2.9575917076        6.4560624265       26.3545369298
  C         5.6314298719        0.3236809330       29.3448312956
  C         5.3922911967        2.5359723211       30.3153391776
  C         8.9542742471        2.4670448339       20.9106566209
  C         9.2593281609        3.8065729878       20.1968289987
  S         9.2040378437        6.3412012911       20.2526600408
  H         2.2744485652        7.2985084864       26.2521960487
  H         3.7200422720        6.5816513325       27.0941164371
  C         2.0469558327        5.3122965861       26.7068096774
  N         5.6981526686       -0.5975386279       28.3705275870
  C         5.4940674987       -0.2284992153       30.6106864967
  C         5.1460912037        1.9770263554       31.5656977372
  H         5.3459487110        3.6342168799       30.2104108583
  C         7.7489695254        1.8740937272       20.0836683100
  C        10.1477967508        1.5392343145       20.8884495237
  C         9.6294999737        4.2426136891       18.8523286718
  C         9.6611699858        5.6125403497       18.7853466113
  H         1.3205816958        5.1623569889       25.8679776442
  H         2.7078244822        4.4189171736       26.6040248733
  C         1.2480474016        5.4938992864       27.9715511257
  S         5.7877302124       -2.0412759955       29.0442688638
  N         5.4435018522       -1.6132539054       30.5420940210
  C         5.2424837128        0.4857909300       31.8131970522
  H         4.8047004429        2.5972566144       32.3475175700
  H         7.5542457153        0.9432242694       20.6774086081
  H         8.1079948918        1.6947461319       19.0977490890
  C         6.3668987269        2.6328349947       19.9777150913
  H        10.2054231684        1.2913299546       19.8484889127
  H         9.9301280770        0.7023481578       21.6272859798
  C        11.5236700525        2.2284238425       21.2116015613
  H         9.9219943252        3.5437587531       18.0823190731
  C         9.9362245006        6.5222743390       17.6202443817
  H         0.8574672138        4.5036246229       28.0983951133
  H         0.3781737791        6.0895715397       27.7170155035
  C         2.1255068560        5.9614813647       29.1324132296
  C         5.1234223548       -0.2295121533       33.0293126294
  H         6.7253143897        3.6121474545       20.0847414549
  H         5.7420187114        2.4463332313       20.8255714734
  C         5.7314747367        2.5275746338       18.5716278686
  H        11.6024877927        2.8987187205       22.1035130345
  H        11.8061335602        2.7541566507       20.2736750621
  C        12.6867588501        1.2506593079       21.3714562554
  C        10.0436024978        7.9437835131       17.5771435654
  C        10.1459238027        5.8623794007       16.2773947429
  H         3.1393372618        5.5558110675       29.0315799280
  H         2.1875592113        7.0569532454       29.1175223282
  C         1.4942586179        5.6004625442       30.4622218201
  H         5.3535605413       -1.2977539393       32.8795757839
  C         4.8073068384        0.2294968854       34.2739714108
  H         6.2205184683        1.7618689347       17.9768467807
  H         5.8025921461        3.4464623701       17.9380780718
  C         4.2524885437        2.0833629477       18.5956632526
  H        12.3677488698        0.5734478756       22.2089756362
  H        12.9685626195        0.8110149073       20.4163767578
  C        13.9368406115        2.0665231153       21.6574714392
  N         9.7429261516        8.8148232591       18.6694555886
  C        10.3624878584        8.6710358968       16.4015116577
  C        10.4754328328        6.5487234582       15.1364490453
  H        10.1099399239        4.7932962660       16.1521824186
  H         0.8603991331        4.6966106256       30.3995736638
  H         2.2101920570        5.5014291369       31.2857948790
  H         0.7977036829        6.4155887734       30.8244781712
  S         4.3571081359        1.8030585928       34.8907238978
  C         4.8124344875       -0.8662415464       35.2928003010
  H         3.9351308673        1.9787249658       19.6047902699
  H         3.6677867102        2.8352680310       18.1297974708
  C         4.0957004612        0.7467596300       17.9208310819
  H        13.8563806201        3.1209580110       21.3083347903
  H        14.7651161933        1.5848414412       21.0532840153
  C        14.3240970660        2.0734665296       23.1758299958
  S         9.8647053095       10.3404215108       18.1999034160
  N        10.2394019421       10.0587786855       16.6025190824
  C        10.5047144793        8.0262942181       15.1277579819
  H        10.5735818935        5.9787040080       14.1961811996
  C         4.2689685442        1.0063429747       36.4545525984
  N         4.4213030188       -0.3641275474       36.4399242276
  O         5.0173255428       -2.0360245820       34.9547608352
  H         4.7025211422       -0.0008706194       18.4940678087
  H         4.3672835787        0.7567225891       16.8894198806
  C         2.6729312403        0.1814590808       17.9575887422
  H        13.4320650653        2.6487124787       23.5535722310
  H        14.3098653848        1.0732431684       23.5405639080
  C        15.5858513714        2.7389331495       23.6125569599
  C        10.9128928573        8.7975841453       13.9214787154
  S         3.8147520257        1.8027297861       37.9339786195
  C         4.3331819415       -1.2387007741       37.5989482342
  H         2.1625092227        0.5748285115       18.8603610457
  H         1.9765289731        0.3483989581       17.0736630818
  C         2.6121460325       -1.3414410877       18.0821822689
  H        15.5680978798        2.9005187764       24.6581414073
  H        15.5665352075        3.7460009031       23.1604571816
  C        16.8298434340        1.9822407103       23.1091121972
  H        10.8892689972        9.8631569409       13.9675564794
  C        11.4110752456        8.4630316858       12.7240323953
  H         3.6410537533       -0.8407232613       38.3391068194
  H         3.9329398456       -2.1968197465       37.3527078097
  C         5.7036064538       -1.2596381704       38.3014559913
  H         1.5271268285       -1.6104432211       17.9953200675
  H         2.9936114625       -1.6619445773       19.0798110580
  C         3.4464443669       -2.0787831424       17.0254969144
  H        16.4737665963        1.0738970694       22.5728348075
  H        17.5691906163        2.5806725406       22.5838260561
  C        17.4826377812        1.5263195128       24.3596931423
  S        11.9002839636        6.8916330259       12.2381574488
  C        11.7381654402        9.5130821494       11.7568143656
  H         6.6188632706       -1.3306016740       37.6769444938
  H         5.7737733741       -0.4546016694       39.0155034935
  H         5.7312837615       -2.1722049798       38.8250143589
  H         4.5006537689       -2.0169241484       17.2979658968
  H         3.3616263985       -1.6904914594       16.0184527444
  H         3.2876019014       -3.1220380205       17.1154305185
  H        17.3819653521        2.1967132925       25.2312871462
  H        18.5388521541        1.2538297758       24.2243347616
  H        16.9617979927        0.6828238872       24.7183740575
  C        12.4139455877        7.7191976613       10.7442457528
  N        12.3907485295        9.0310795508       10.6957142281
  O        11.5069060880       10.7202831191       11.9293683348
  S        12.8843287464        6.9629816504        9.2577088776
  C        12.7284765721        9.8901976609        9.5984858533
  H        13.0822150320       10.8697904465        9.8426045756
  H        13.6044757025        9.5679054163        9.0480738096
  C        11.5137482266       10.1131692984        8.6597831314
  H        10.7281218671        9.3884701508        8.8027721843
  H        11.2062369955       11.0102112992        9.0423834149
  H        11.7200344057       10.2657470377        7.5892901114
  H         4.3995819688        1.2679188192       12.9272723879
  C         3.7960320550        2.1684694298       12.9316085211
  H         4.4286356011        3.0328029987       12.9520340641
  C         2.8768206885        2.1700475080       11.6951201209
  C         2.8718306332        2.0262046506       14.1721182011
  C         3.6432724060        2.5949459412       10.4007116698
  H         2.0617688836        2.8615289991       11.8284632737
  H         2.4926616734        1.1270612751       11.5506262440
  H         2.1354945167        1.2357194059       13.9890802104
  H         2.4251314705        2.9851224856       14.2867092345
  H         3.3200400414        1.7490775169       15.1019312827
  C         4.6535649902        1.5375759344        9.7428245605
  H         2.9616775410        2.9902487259        9.5878685896
  H         4.2894038911        3.4679277251       10.6523616982
  C         5.3374950213        1.9528709212        8.4872189084
  H         3.9815631828        0.7109255443        9.4361152875
  H         5.3318866173        1.0253210154       10.3555879628
  C         6.6178261841        2.7556456792        8.8520307044
  H         4.6699831913        2.5959715946        7.8958450987
  H         5.5965463427        1.1563389280        7.7711232608
  C         7.9344029668        2.0556616133        8.9670275953
  H         6.6815049883        3.5090868043        7.9939492724
  H         6.4268640909        3.3212543205        9.7455933573
  C         9.2552256615        2.9184971432        9.1144947694
  H         8.0700906994        1.3324613277        8.1620576245
  H         7.7890643816        1.3804892845        9.8114271914
  C         8.9145590163        4.2272719412        9.8824836935
  C         9.6594665296        3.6846130628        7.8903970369
  C        10.5178156640        2.3333363330        9.7868834304
  C         9.1234322585        5.3831989672        9.1060522229
  C         8.5535898668        4.5592748685       11.1804994482
  C         9.5829146337        5.0243847757        7.8072298180
  C         9.9774382517        3.0648111877        6.7248606482
  H        10.1674518418        1.9559152577       10.7805714287
  H        10.9758395352        1.5011403829        9.2885340510
  C        11.6082160193        3.3609552932       10.2383192016
  S         8.9656976205        6.9084801443        9.9970386555
  C         8.4861926880        5.9241766222       11.3833685967
  H         8.3583765796        3.7240510349       11.8202229736
  C         9.9562700917        5.6310996102        6.6584098082
  H        10.0704192287        2.0018116242        6.6882847948
  C        10.2921424143        3.6837765505        5.5662060011
  H        11.3569103186        3.9640046569       11.1469563920
  H        11.8360112338        3.9795027487        9.3318879438
  C        12.8286678231        2.6135274939       10.7371630710
  C         8.0684829019        6.6195118019       12.6408196268
  C        10.2803341871        5.0464884872        5.4648725738
  H         9.8803244917        6.6932548035        6.8290648884
  C        10.8677728754        3.2990026034        4.3745497505
  H        13.6012137223        3.4112223849       10.8286337200
  H        13.1149898824        1.8719075463       10.0169739624
  C        12.7051567512        2.0613234919       12.1336156465
  C         8.0672645884        8.0208754369       12.8339520290
  C         7.4876212995        5.6767945720       13.7067880392
  C        10.7160893171        5.7035127184        4.2718335899
  C        11.1222269057        4.3705927075        3.5442579557
  S        11.2848719991        1.8071683458        3.6562864969
  H        11.7983854533        1.4849296849       12.2955622236
  H        13.4530907082        1.3633671246       12.1593495324
  C        12.9302644505        3.1202324451       13.3241135343
  N         8.4132666905        9.0586262494       11.9436111321
  C         7.6531163291        8.5190407596       14.0362354753
  C         7.0694759115        6.2179171588       14.8948429434
  H         7.2592012589        4.6775619368       13.5486569522
  C        11.8905427046        6.6451607301        4.4023000028
  C         9.4825998287        6.3533667666        3.6442406134
  C        11.5763883419        3.9579961590        2.2987434593
  C        11.6874899866        2.5895160176        2.2255204604
  H        12.6178102415        4.1004012225       13.0044623969
  H        13.9718247905        3.3740317887       13.5753162283
  C        12.1956605500        2.8840449310       14.6357994973
  S         8.3192930828       10.4839288004       12.7695189506
  N         7.8129801309        9.8878477705       14.1388642519
  C         7.1556356799        7.6723018716       15.1143928210
  H         6.5119025116        5.5460551967       15.5478872212
  H        11.4623222152        7.5548599880        4.7865177239
  H        12.4657711591        6.7822164499        3.4435622063
  C        12.9794359306        6.1651680507        5.4398145767
  H         9.2655357309        7.3190511503        4.0563521706
  H         9.7620933555        6.4917142049        2.6271854513
  C         8.1329595360        5.5871696259        3.5685491138
  H        11.5592020699        4.7099008653        1.5083159749
  C        11.9743078554        1.8053558589        0.9725515224
  H        11.8091120000        3.8640667451       14.9806816730
  H        11.4300299944        2.1756690675       14.4486816770
  C        12.8488974582        2.1654186040       15.8498623077
  C         6.8021032319        8.3007410124       16.3396546096
  H        12.6272467148        6.4189250217        6.4306140673
  H        12.8757670455        5.1248537805        5.3756387213
  C        14.4182475820        6.6984382379        5.1623417619
  H         7.5781932481        5.7626277865        4.4965454348
  H         8.2587017153        4.5345149915        3.4140565467
  C         7.2395244575        6.0538806817        2.3859090391
  C        12.0022642325        0.4304595517        0.7029464449
  C        12.1353758300        2.5906402631       -0.2806487145
  H        13.4141510257        1.3511449273       15.4589697723
  H        12.1466633513        1.6646341673       16.4229336562
  C        13.7086455965        3.0476179086       16.8077173887
  H         6.9162001908        9.3760329934       16.1539198843
  C         6.4740516672        7.9220808743       17.6322619951
  H        14.4902066594        7.7782310758        4.9993850097
  H        14.7945412977        6.1360598596        4.2483793096
  C        15.2659654275        6.2454938896        6.3970348772
  H         7.6200433641        7.0091406817        2.0011537452
  H         7.4286733272        5.2643059821        1.6307603368
  C         5.7674371633        6.2577295766        2.6168570661
  N        11.7461260038       -0.5267653742        1.6902944361
  C        12.2634746729       -0.1763900215       -0.4840894040
  C        12.3768131403        1.9992003999       -1.4945478932
  H        12.0395650847        3.6448094967       -0.2892767216
  H        13.1719192134        3.8151243417       17.2980615931
  H        14.5795727551        3.4906911715       16.3792735672
  H        14.0695121326        2.4390241318       17.6080988688
  S         6.0664351950        6.2883586629       18.1183339257
  C         6.2299695951        9.0154453854       18.6140007850
  H        15.4046851529        7.1721314785        7.0124812696
  H        14.6874661134        5.5994752738        6.9828063051
  C        16.6073205357        5.5782333847        5.9735009821
  H         5.2382409564        5.4596705719        3.1202389914
  H         5.3462914796        6.2318072119        1.6258705772
  C         5.6040144929        7.6248213655        3.3308920931
  S        11.7713273131       -2.0427937732        1.0376896595
  N        12.2994654307       -1.5770957326       -0.4475595740
  C        12.5796135319        0.5799343857       -1.6504764611
  H        12.4999289002        2.6275978806       -2.3409109916
  C         5.9551418860        7.0377278852       19.7314465326
  N         5.9201620131        8.4157836919       19.7788788578
  O         6.4118016424       10.2031631704       18.4509168516
  H        16.3273613554        4.8658973517        5.2507568938
  H        17.2048456036        6.2451211044        5.3661000866
  C        17.3203648040        4.9698382296        7.1957262192
  H         4.8832392280        7.5148846980        4.1601573107
  H         6.5239884530        7.8317772297        3.7876629842
  C         5.1040835020        8.7530038554        2.3707635313
  C        12.7919759474       -0.1237576733       -2.8835750789
  S         5.5934862025        6.1074110360       21.2397854196
  C         5.8148840762        9.1904245401       21.0561067527
  H        16.5664612104        4.9668263907        7.9785442453
  H        17.6891920484        3.9478876469        7.0881291226
  C        18.6512022344        5.7129221289        7.7273743137
  H         5.4069275389        8.3420835685        1.4075197823
  H         5.4680646405        9.8003611192        2.6567904141
  C         3.5574931651        8.7382445544        2.3034559313
  H        12.2940583044       -1.1149286183       -2.9508947222
  C        13.3953540309        0.2505502535       -4.0326928741
  H         5.2352332285        8.6625441852       21.8564377445
  H         5.3090620990       10.1695915332       20.9431728540
  C         7.2014281890        9.3634109972       21.7277736581
  H        19.0231341631        5.1171223502        8.5848568224
  H        18.3681989481        6.6296718211        8.0964488982
  C        19.6681622153        5.7574749796        6.5491022533
  H         3.0351888569        7.7583266137        2.1903458086
  H         3.1882396278        9.2243243615        3.1936673970
  C         3.1281200183        9.5870085127        1.1174454866
  S        14.1996772489        1.7564818332       -4.3813632243
  C        13.4817321872       -0.7583528796       -5.2067823027
  H         7.0671964032        8.8250421898       22.6442116886
  H         7.5543580451       10.3574533669       21.8714670074
  H         8.0508737841        8.9472200436       21.1142503057
  H        19.4819266105        6.5630119929        5.7961979817
  H        20.6535104964        5.8829577418        7.0207488682
  H        19.5473388936        4.7779505461        6.0393406710
  H         2.1806332936       10.1039637819        1.2607597275
  H         3.9349706547       10.2623949864        0.8584847859
  H         3.1099377682        8.8700408012        0.2869089760
  C        14.6417771734        1.0325797481       -5.9529658749
  N        14.2163615899       -0.2398067423       -6.2594421998
  O        12.7731754009       -1.7492023326       -5.2535984234
  S        14.9517858717        1.9442589050       -7.4371271278
  C        14.2822394081       -0.9252000605       -7.5177855302
  H        14.6397447066       -1.9555726887       -7.2904439773
  H        14.9056111834       -0.4598201703       -8.2515783472
  C        12.9186641539       -1.0868436717       -8.1814979882
  H        12.2589337904       -0.3100076729       -7.8223044625
  H        12.4635703360       -1.9499362123       -7.8180011945
  H        12.9083446306       -1.3000836300       -9.2676657626
