352
 i =   126100, time =    63050.000, E =        99.1124397910
  H        10.2852787167        6.8655431262       33.1891128887
  C        11.2617929980        6.5299506247       32.7921900437
  H        11.9341537716        7.1758204373       33.3778258116
  C        11.3733317055        6.8414340256       31.2867559649
  C        11.4913341036        5.0657345973       33.2869176669
  C        10.9906077796        5.6482694711       30.3436231188
  H        10.7604386421        7.7526158700       31.0633827248
  H        12.4458023988        7.1112861354       31.1536223499
  H        10.8783800154        4.2643033664       32.8499337409
  H        12.5493393895        4.8412414536       33.0926651753
  H        11.3409452771        4.9047603029       34.3438968335
  C        11.4553680515        5.8973407140       28.9068406703
  H         9.8768506755        5.5283754187       30.3011663258
  H        11.4140123561        4.6818831647       30.7037894783
  C        10.3049881680        6.3783575847       28.0438703932
  H        12.2915673054        6.5648190575       29.0278403620
  H        11.9357924111        4.9863978506       28.4923314972
  C         9.5506138488        5.3182423546       27.3133427243
  H        10.6172712603        7.0688645214       27.2535310474
  H         9.7372773158        6.9250485042       28.6898257592
  C         8.8107213023        6.0065564745       26.1866753123
  H        10.1697278512        4.5807994916       26.8296431891
  H         8.9505159399        4.6905805483       27.9894459119
  C         7.5378995004        5.2799316762       25.5682267894
  H         8.3262174877        6.9842934083       26.4645038611
  H         9.5215833392        6.2451585908       25.4188928933
  C         7.1747784503        4.0169217181       26.2656363016
  C         7.8833748823        4.5102259316       24.3420654048
  C         6.2851484149        6.1297536904       25.2811974308
  C         7.2863163455        2.8344673838       25.4947223229
  C         6.6675986949        3.6038069192       27.4977739059
  C         7.8093191009        3.1661233383       24.2225259257
  C         8.4114758074        5.1641657927       23.2181378364
  H         6.4611529169        6.8526729128       24.5135732846
  H         6.0413228295        6.5677481343       26.2607933426
  C         4.9812243199        5.3636475495       24.8995825997
  S         6.8490807712        1.3991353732       26.1626597382
  C         6.4730782874        2.2731387375       27.5657201700
  H         6.6212936455        4.3088589043       28.3137948576
  C         8.1835706431        2.5506517948       23.0557583336
  H         8.5662677613        6.2421954633       23.1951763989
  C         8.7054653905        4.5302306134       22.0319193392
  H         5.1405958710        4.7167987010       24.0749187582
  H         4.7117657271        4.7068834326       25.7772010226
  C         3.9135633193        6.3655666876       24.4849617174
  C         6.0690016205        1.5780426680       28.8522431126
  C         8.5699072186        3.1773316214       21.8691037230
  H         8.0729978021        1.4810168033       23.0464287621
  C         9.1200480566        4.9230519679       20.7820254430
  H         3.0641912643        5.8952827618       23.9645010461
  H         4.3642629526        7.1444953536       23.8402025332
  C         3.1586981876        6.9865816207       25.5973427201
  C         6.0526110881        0.1769756697       29.1166592138
  C         5.7597200507        2.4214021751       30.0059822615
  C         8.9345390175        2.4374259749       20.6194621835
  C         9.1526345148        3.8095827563       19.9327664943
  S         9.4988361700        6.3521188524       20.0089251654
  H         2.7361993949        7.8844702397       25.0998180245
  H         3.8811419750        7.2527627472       26.4130548330
  C         2.1678958841        5.9876921178       26.2284757336
  N         6.3729648980       -0.8414047022       28.2278370056
  C         5.7070206715       -0.3078196523       30.3783038247
  C         5.3694848352        1.8888137040       31.2445758900
  H         5.5348344127        3.4683553389       29.7899347764
  C         7.8685669433        1.6358113678       19.8308259171
  C        10.2230453867        1.6035388578       20.7504724222
  C         9.5007300078        4.1534150847       18.6137266858
  C         9.7108258486        5.5184747894       18.5112338880
  H         1.3867922568        5.7878505236       25.5502429010
  H         2.7139101945        5.0463049275       26.2983974442
  C         1.5516617429        6.4354240153       27.5859874218
  S         6.1854101610       -2.2538758586       29.0306486743
  N         5.7668112589       -1.6940481033       30.4890148755
  C         5.3282526180        0.4586233656       31.5015410795
  H         4.9927673247        2.6108372130       31.8911912786
  H         7.4932903111        0.7609365877       20.4230396728
  H         8.3287793919        1.1569166090       18.9440128153
  C         6.6453057550        2.4749292690       19.4191882901
  H        10.3446982032        1.0176313481       19.7858716935
  H        10.0463785175        0.8649793417       21.4780766568
  C        11.4907947346        2.3243424307       21.1321177879
  H         9.6230524767        3.4280261180       17.8627478445
  C        10.2174607520        6.1871791186       17.3077306331
  H         0.5528633241        6.9160142752       27.5602591562
  H         2.1919006065        7.2357809456       27.9631703168
  C         1.5694825640        5.2342294065       28.6589030001
  C         5.1512302195       -0.2259466193       32.7635609341
  H         6.8633327179        2.9684072102       18.4439773998
  H         6.5136019989        3.2087678766       20.1257458260
  C         5.4839171325        1.5552090445       19.1785006111
  H        11.4556722180        2.9772363250       22.0459216956
  H        11.7113533842        2.9263633417       20.2446181118
  C        12.6651443679        1.2819236440       21.3474350923
  C        10.2068925347        7.5912690644       17.0867517078
  C        10.5327845259        5.4373889151       16.0024222162
  H         0.5957545347        5.3722706009       29.1119052782
  H         1.5432694865        4.2008960662       28.1778792684
  C         2.7445503102        5.2749879127       29.6511196046
  H         5.2031031083       -1.2858197727       32.8085085336
  C         5.0064947933        0.2688617918       34.0524545184
  H         4.8847669898        1.3185588304       20.0692567189
  H         5.7328050702        0.6364596548       18.6460099884
  C         4.4247473147        2.3463164697       18.3106377420
  H        12.3953663586        0.8160904022       22.3024938525
  H        12.6553140504        0.5097730216       20.5503417919
  C        13.9220437677        2.0514178696       21.1557073536
  N         9.8957947670        8.5068451543       18.0406467428
  C        10.5885236373        8.2641626775       15.9208804376
  C        10.8563126274        6.0706143706       14.8271777253
  H        10.5418840385        4.3597295112       16.0191637786
  H         3.1480547112        4.3197428626       30.0611691932
  H         3.6064484160        5.7349547467       29.2578832456
  H         2.4327504056        5.8361710336       30.4750547741
  S         4.5869966696        1.8466339255       34.5214746748
  C         4.9134659349       -0.7759929090       35.0622983456
  H         4.1477559140        3.2015308674       18.8878138992
  H         4.8976015932        2.7484882274       17.4204628432
  C         3.1409613536        1.5487015807       18.0512747290
  H        13.6949739050        3.0915249269       21.2613601753
  H        14.1592191007        1.9980496223       20.1510163405
  C        15.0436159453        1.6040919619       21.9609599061
  S        10.0278459929       10.0570272334       17.4944247067
  N        10.4810353140        9.6809432959       15.9956195355
  C        10.8948734488        7.5313275147       14.7593100744
  H        10.9509844687        5.5064205197       13.9423014154
  C         4.4375488454        1.1251782987       36.0954775717
  N         4.5802411240       -0.2074909955       36.2392322551
  O         5.2450424580       -1.9505932250       34.8557188144
  H         2.3748663984        2.3400065236       17.7354569032
  H         2.6495643337        1.2083869837       19.0343641948
  C         3.3558207942        0.5528247030       16.9291475132
  H        14.6345342646        1.4484682529       22.9591961951
  H        15.3924579337        0.7379053104       21.4703462649
  C        16.1568117875        2.6735330527       21.9575544823
  C        11.0610545700        8.2550596821       13.5504055545
  S         3.9750490674        2.0647455297       37.5475808823
  C         4.6810386846       -0.9142476668       37.5108265940
  H         2.3803191104        0.6943994072       16.3716771722
  H         4.2452312234        0.7941089273       16.3406608556
  C         3.4146428934       -0.9226134800       17.3927016509
  H        15.9237142345        3.5252148316       22.6273134779
  H        16.2504224088        3.0500823359       21.0052863157
  C        17.5886990970        2.2589987184       22.3392581393
  H        10.7664633768        9.2265610235       13.5821170946
  C        11.6117712638        7.9937352013       12.3310730372
  H         3.9780536639       -0.5467404081       38.3029251281
  H         4.3669135643       -1.9745783488       37.2560275510
  C         6.1229518783       -0.8352903515       37.9846687377
  H         4.3022955456       -1.0288749493       18.0263446853
  H         3.6509107205       -1.6294847281       16.5166262068
  C         2.1906082533       -1.3980776504       18.1296670860
  H        17.9491500796        1.4033654417       21.7475027226
  H        18.2757022618        3.1247931382       22.0657915393
  C        17.5944246986        1.8863411834       23.8370711489
  S        12.2301456752        6.4320057081       11.8499952697
  C        11.7089198007        9.0908623678       11.3379604323
  H         6.8257191083       -0.1877647305       37.4939097882
  H         6.1753558062       -0.5293653577       39.0366941902
  H         6.5613575620       -1.8400437866       37.9312900163
  H         1.3232547751       -0.9351125516       17.7309661489
  H         2.3170623035       -1.0586267935       19.1403343711
  H         2.0376085296       -2.4824594340       18.0659104862
  H        16.8078132013        1.1394300669       24.1208348518
  H        17.2316843742        2.7191418011       24.4825566411
  H        18.5405079962        1.4087438316       24.0707030337
  C        12.5944190203        7.2684517785       10.3418562303
  N        12.2917442772        8.5849456551       10.2367800773
  O        11.2118605901       10.2214380059       11.4121060744
  S        13.3786893336        6.6274761999        9.0273143348
  C        12.3172649005        9.3029557961        8.9652452384
  H        12.4996857341       10.2718346036        9.2332100551
  H        13.2061039929        9.2559378354        8.3295130184
  C        11.0888255346        9.1154303959        8.0809866168
  H        11.2122482713        8.1797725576        7.5289751168
  H        10.1932237022        8.9907819949        8.7775777414
  H        11.0636321915        9.9568245411        7.4074664125
  H         2.8272979827        3.9984557277       12.5876548294
  C         3.1592762584        3.0141415853       12.3407647053
  H         2.5696038836        2.3999080836       12.9205004398
  C         2.8373422937        2.6191352576       10.8955875200
  C         4.6260343596        2.9059839585       12.8138139663
  C         3.8015749189        3.0006862193        9.8078087967
  H         1.9215397637        3.0840448206       10.5626097988
  H         2.4627958218        1.5610628731       10.8688366988
  H         4.8266730918        3.2403706335       13.7766921514
  H         5.3266137247        3.4148774882       12.1509521566
  H         4.8797935283        1.8184738390       12.7893653665
  C         4.8328294282        1.8862956787        9.4348005345
  H         3.1916618799        3.2049967921        8.9517682188
  H         4.2429666319        3.9157119092       10.0271555374
  C         5.6702936897        2.1630236656        8.1955002781
  H         4.2976127885        0.9726956944        9.2474065529
  H         5.5508104061        1.7925627582       10.2608462687
  C         6.7857475210        3.0016006340        8.5023657824
  H         5.0036222709        2.5465093644        7.4059084155
  H         5.9288499926        1.2107594214        7.7678170502
  C         8.0122812689        2.2425720003        9.1050126340
  H         7.0135494215        3.4160557165        7.6048371028
  H         6.5286101376        3.7642802067        9.2338276774
  C         9.2485446636        3.0081580297        9.3360497218
  H         8.2467848505        1.3859069475        8.4808888478
  H         7.8460790831        1.8354824643       10.0827129518
  C         8.8890574682        4.3428959517        9.9532328601
  C         9.6697972438        3.6679195084        8.0952268571
  C        10.3161449801        2.2705090818       10.2133508527
  C         9.0332515520        5.4585079754        9.1691454511
  C         8.3990452425        4.6701869857       11.2442932976
  C         9.6401622230        5.0132166763        7.9733496829
  C        10.0839389143        3.0565322319        6.9525261312
  H         9.8284993055        1.9863273425       11.1807495293
  H        10.3819702919        1.2995920670        9.8464207375
  C        11.5961657079        3.0820820487       10.4230236022
  S         8.6872332860        6.9107875296        9.9522231683
  C         8.3200340304        6.0451061510       11.3633495252
  H         8.2701970764        3.9325996332       12.0045903093
  C        10.0976906190        5.6211937136        6.7958553779
  H         9.9545206709        1.9606956184        7.0147027555
  C        10.4831626683        3.5901951765        5.7743515324
  H        11.3693999386        4.0339500906       10.7908205818
  H        11.9481162434        3.2773963996        9.4381505367
  C        12.6483245749        2.3459642506       11.2675089115
  C         7.7729085982        6.7403761741       12.5907147876
  C        10.4787496917        4.9538664498        5.6338631740
  H        10.0321292340        6.6965588979        6.7388077137
  C        10.8662157643        3.1252225370        4.5530898831
  H        13.5977004135        2.8540729744       11.1153393386
  H        12.7327389161        1.3089588776       10.8651940152
  C        12.1347380262        2.4444879175       12.7032971240
  C         7.8695717944        8.0811429498       12.9539812229
  C         7.3322333328        5.8077450451       13.7209701619
  C        10.9351696379        5.5782986773        4.3645747834
  C        11.1644805758        4.1573540886        3.6697408157
  S        11.0943820224        1.5442625400        3.8419970711
  H        11.8425960084        3.5002902968       12.9007227165
  H        11.2750538101        1.8920104175       12.8715900226
  C        13.1946527228        1.9663334503       13.7003687317
  N         8.2548953454        9.0023432087       12.0549800119
  C         7.5064799922        8.5898869980       14.1951528072
  C         6.9848973108        6.3109334764       15.0025660900
  H         7.3230301423        4.6929048748       13.5798462895
  C        12.2436481067        6.3389538954        4.4739679220
  C         9.8273723039        6.4199569950        3.7006371482
  C        11.5315133902        3.6429177758        2.3766552075
  C        11.5606937708        2.2823008161        2.3368193873
  H        13.6861221427        2.8921336943       13.9961254349
  H        13.9118879879        1.3948998722       13.1859187990
  C        12.6288205346        1.2991092762       14.9888072764
  S         8.3026868033       10.4501559498       12.8443573240
  N         7.6981566920        9.9548806320       14.2400939564
  C         7.1133471788        7.7659355832       15.3250773444
  H         6.4088277731        5.7078100940       15.6638063670
  H        12.0538546435        7.0902673582        5.2411518634
  H        12.5742596192        6.9058814943        3.5863693674
  C        13.3843278897        5.4570195160        4.9816478156
  H         9.3589942108        6.9822454771        4.5040203851
  H        10.1579883198        7.1098837878        2.9336426831
  C         8.6921412122        5.6219012182        3.1742490021
  H        11.5671138761        4.3980701366        1.5834170143
  C        11.8911950267        1.4479129520        1.1120257542
  H        11.6415620637        1.7144295312       15.2237607603
  H        12.3874315041        0.2639173871       14.8277793217
  C        13.5201308920        1.5494083108       16.2921741616
  C         6.8555815845        8.4208198666       16.5567621720
  H        13.1120281900        4.8693876872        5.8759925890
  H        13.6780057457        4.8066170538        4.2158904402
  C        14.6307533731        6.2737551641        5.3560424294
  H         8.2229911712        5.2863748465        4.0865955344
  H         8.9218084651        4.6986794853        2.6617158036
  C         7.7224187124        6.4828962833        2.4249377170
  C        11.9799933866        0.0159592255        0.9713872598
  C        12.0362456181        2.1440474648       -0.1583648824
  H        14.3999024401        2.1334542714       16.0261496900
  H        14.0765899401        0.6559685143       16.5902718747
  C        12.8820842550        2.3345264035       17.4044901213
  H         6.8884994105        9.4784252042       16.5228729836
  C         6.5957703086        7.9104731259       17.7631363289
  H        14.4120949280        6.9919486759        6.1302588806
  H        14.9909764106        6.8405252618        4.4947938706
  C        15.7658743653        5.3143042021        5.7712794912
  H         7.2723997704        7.1064585681        3.2237132070
  H         8.1043723368        7.1410123651        1.6358281249
  C         6.5409298549        5.7624608839        1.8409890968
  N        11.5740590572       -0.8878449990        1.8675649597
  C        12.3654490996       -0.5877008808       -0.1954895138
  C        12.3769476279        1.5157953657       -1.3581988108
  H        11.8421442142        3.2055502104       -0.1657158169
  H        11.9736731173        2.7862685246       16.9646554898
  H        13.4297515751        3.1716055438       17.8123710894
  H        12.6030040625        1.6831436489       18.2968826453
  S         6.3833927426        6.2718744421       18.1805389686
  C         6.5531127505        8.8910309543       18.8700356978
  H        15.3893094177        4.5043875058        6.3776212813
  H        16.0568142870        4.7023257804        4.9470658929
  C        16.9225564077        5.8871124634        6.6049073355
  H         6.0943023966        5.3202051335        2.7417804052
  H         6.8499424816        4.8913015470        1.2519125228
  C         5.5112369295        6.6247599150        1.1221971095
  S        11.8713849451       -2.4189941278        1.3301870507
  N        12.5175900156       -1.9568867133       -0.0680330399
  C        12.6861183483        0.0522838204       -1.4129436149
  H        12.5114024974        2.0777222941       -2.2642164150
  C         6.0679717235        6.9553795705       19.7945601126
  N         6.1776786675        8.2921715032       19.9822942594
  O         6.6879507333       10.1349186110       18.6984945192
  H        17.5033859702        6.5992496240        5.9655196903
  H        16.4360354763        6.4190653578        7.4696564093
  C        17.8634215284        4.8163311965        7.1721745242
  H         6.0358176553        7.2801685642        0.3965830508
  H         4.7923528171        5.9930699944        0.5999786926
  C         4.9431339672        7.7116361728        2.0793698739
  C        12.9966530650       -0.7081804180       -2.5714757492
  S         5.7748185748        6.0400313122       21.2558018223
  C         6.0703829990        9.0042588093       21.2458614251
  H        17.6804094230        4.5577663136        8.1442212327
  H        17.8078170916        3.8870931090        6.5187820297
  C        19.2542315977        5.5190775553        7.1591352365
  H         5.5673699241        8.5160821588        2.3149514514
  H         4.6319993114        7.2358222360        3.0413594363
  C         3.7620380283        8.4259693764        1.6701674599
  H        12.8011743466       -1.7485443332       -2.4830767355
  C        13.3919259377       -0.4724506046       -3.8822135757
  H         5.4843498067        8.4874095872       21.9987931405
  H         5.6396026058        9.9942711310       21.1993744619
  C         7.4250910683        9.0918796645       21.9053999119
  H        19.8975574811        5.2367186434        8.0004582456
  H        19.1030207485        6.5466251947        7.2755529237
  C        20.1428779079        5.4885587533        5.8879498173
  H         3.7081413786        8.3366563787        0.5460710971
  H         2.8807737672        8.0168574620        2.1078348793
  C         3.9238912620        9.9581349985        1.9471479929
  S        13.8745038999        1.0091513152       -4.5191569477
  C        13.6270672698       -1.6295998389       -4.7758013736
  H         7.6411119762       10.1883545560       21.8404929295
  H         8.1373087576        8.5075563038       21.2503333608
  H         7.5782483733        8.6537834258       22.9282616139
  H        19.5282727047        5.4838031797        4.9658303985
  H        20.9166074973        6.2096789725        5.7186077973
  H        20.7101034369        4.6052993302        5.8502172493
  H         4.0187575437       10.1252748897        2.9984145209
  H         4.8163290920       10.2966546937        1.4296686528
  H         3.1179527109       10.4923272787        1.4276185910
  C        14.1458999236        0.1855780880       -6.0406573889
  N        14.0278688293       -1.1367859036       -6.0007041887
  O        13.6649615966       -2.7777829477       -4.4156130656
  S        14.8973540848        0.8127657202       -7.4668579974
  C        14.0976240723       -2.0665375962       -7.1150548554
  H        14.2795643999       -3.0407358566       -6.6804508804
  H        14.8765437427       -1.9454819550       -7.8835425835
  C        12.8679876191       -2.0945020353       -7.8501316971
  H        11.9840334397       -1.8420110402       -7.1940344940
  H        12.6815682720       -3.0950729651       -8.2964832840
  H        12.9333027804       -1.3153989227       -8.6264734032
