352
i=
  H         4.7509663307        1.9871551055       12.1551144123
  C         4.0700560083        2.8041277643       12.3684630291
  H         4.6133287463        3.7264817577       12.3379876361
  C         3.2386816818        2.9528987956       11.0698844760
  C         3.1609147716        2.7000317637       13.5892465773
  C         4.0995070450        3.0777540239        9.7488683703
  H         2.6218380414        3.8122209479       11.0813123983
  H         2.5949949411        2.0873251544       10.9730933879
  H         2.8742668843        1.6601411340       13.5745974591
  H         2.2959668015        3.2906799158       13.6440529288
  H         3.7788210310        3.0542490625       14.4237964745
  C         4.6975806530        1.8074948961        9.2061847307
  H         3.3879408801        3.3643887653        8.9057716855
  H         4.8562833832        4.0111198494        9.8679658185
  C         5.5317869059        2.0029367724        7.8890036994
  H         3.8555099473        1.0975793207        9.1218982786
  H         5.3844849848        1.5098776795       10.0090473266
  C         6.7675488433        2.8853389148        7.9278935039
  H         4.9482715916        2.2119946468        7.0329737154
  H         5.8771069849        0.9471671066        7.6501454241
  C         7.8596646940        2.2437257672        8.6437187365
  H         7.2227646995        2.8656615870        6.9020465303
  H         6.5982841371        3.8761535101        8.3072734424
  C         9.0545904761        3.0948070887        8.8253900206
  H         8.2075911557        1.3304171282        8.2236336840
  H         7.4791132395        1.8911337407        9.5861038149
  C         8.6881702851        4.4257556907        9.4719539541
  C         9.6047194105        3.7504027232        7.5740049798
  C        10.0631553894        2.2988700992        9.6572151484
  C         8.9733086185        5.5091334886        8.6811126464
  C         8.1258565706        4.8092445296       10.7131395003
  C         9.5200271678        5.1413609888        7.4815597052
  C        10.2606407319        3.1636182565        6.4689337470
  H         9.5962840700        1.9685721207       10.5036233503
  H        10.3419198295        1.4240468845        9.1387289162
  C        11.2862723824        3.1221187747       10.0613377989
  S         8.4795931041        7.0620358480        9.4587500071
  C         8.1354208159        6.1418847869       10.9028374122
  H         7.7831891101        4.0932529948       11.4099118194
  C         9.8817840445        5.7775438616        6.3275319019
  H        10.2824824348        2.0720944840        6.5141878882
  C        10.6195007535        3.7659151186        5.2896241596
  H        10.9905947066        3.8303017625       10.7906109827
  H        11.6158525470        3.4704519274        9.0860134990
  C        12.4101598331        2.3085646203       10.7819517479
  C         7.7073713039        6.7673787360       12.2062249655
  C        10.4226114451        5.0923002230        5.1930599906
  H         9.7705805756        6.8621690389        6.2683674240
  C        10.9766094965        3.3512435834        4.0250952525
  H        13.3976224557        2.8778408535       10.5529291578
  H        12.3536907412        1.3847323912       10.2952101905
  C        12.2457362894        2.3020042166       12.3065031787
  C         7.7273809230        8.1463704086       12.5931058614
  C         7.2801967526        5.8649748712       13.3444331979
  C        10.8703837897        5.7853920604        3.9219702318
  C        11.1701736992        4.4706989686        3.2128390961
  S        11.2063983354        1.8461874936        3.2279412021
  H        11.6900118234        3.1854605466       12.6443840723
  H        11.6199366027        1.4026119444       12.4545331735
  C        13.5067376696        2.1067603513       13.1397162079
  N         8.2755189777        9.2068866907       11.8119854462
  C         7.3965806203        8.6016303507       13.8760325213
  C         7.0994262397        6.2774362531       14.6661241548
  H         7.2572272982        4.7953510242       13.2493338070
  C        12.1231999767        6.7080905987        4.2777558368
  C         9.7771914088        6.6222195018        3.1652063131
  C        11.5073449047        4.0834838546        1.8791452468
  C        11.5036821097        2.6574816825        1.7760861455
  H        14.0855047579        3.0158442348       13.1283243320
  H        14.0580551939        1.2987786767       12.6520625038
  C        13.2036667606        1.6483877818       14.5573730411
  S         8.0378086240       10.6238419003       12.6263757965
  N         7.3983197890        9.9833981155       14.0026077990
  C         7.1147925990        7.7498465224       14.9836902277
  H         6.8375676192        5.5408060619       15.3738577434
  H        11.9161357404        7.5261786613        4.9354481548
  H        12.5983067905        7.0425016144        3.3378093953
  C        13.2372263295        5.9062392766        4.9514880979
  H         9.5824926442        7.4359948295        3.8748079835
  H        10.2390988045        7.1270760692        2.3127119723
  C         8.5865966862        5.7777452072        2.7271840811
  H        11.6416020638        4.8776329978        1.1590347705
  C        11.8592573566        1.9659909901        0.4939075846
  H        12.3321372506        0.9618759851       14.6699002244
  H        14.0441872091        0.9504879235       14.7826385855
  C        13.3830586027        2.7503612579       15.5741740140
  C         6.8648197497        8.3126210270       16.2264355605
  H        12.8401246688        5.5860146156        5.8435743585
  H        13.4885599200        4.9751399306        4.4925031884
  C        14.5553991214        6.5516009789        5.2857796551
  H         8.4717772189        5.1708930669        3.5839900771
  H         8.9694548130        5.0556139609        2.0095206217
  C         7.2876376688        6.5403623369        2.5055189176
  C        12.0125019572        0.4980614382        0.3656577498
  C        12.1477647398        2.7268274326       -0.7260016926
  H        12.5659543776        3.3900368593       15.3336362836
  H        14.2898745815        3.3632152827       15.6360534006
  C        12.9692984277        2.3408232415       17.0396115343
  H         7.1528060455        9.2832594213       16.3745318973
  C         6.3837465241        7.8116725108       17.4479094180
  H        14.3570112374        6.9950092073        6.2560601520
  H        14.7069832777        7.2754932006        4.5240725364
  C        15.7372229674        5.4881835197        5.4004082275
  H         7.1547340934        7.3084521116        3.3583314571
  H         7.4763570144        7.2512861466        1.7358170191
  C         6.0116303736        5.7251110997        2.2491668321
  N        11.8045904455       -0.3731103849        1.3837247035
  C        12.1826190701       -0.0661946032       -0.8868636181
  C        12.4298734068        2.1426250003       -1.9404918806
  H        12.0345390647        3.7819042924       -0.6449354910
  H        13.8539861745        2.4972014862       17.6858223567
  H        12.5505718617        1.3211994833       17.1420084567
  H        12.1997869241        3.0486244296       17.3970519001
  S         5.9866817285        6.1839487727       17.9877382042
  C         6.3792081314        8.8548047617       18.4940478438
  H        15.4641555804        4.6382519926        5.9993546076
  H        16.0609255037        5.0168275016        4.4407102324
  C        16.9949084660        6.1848550996        5.9132465047
  H         5.5994208886        5.6347775977        3.2478687942
  H         6.3129848234        4.7281653353        1.9376194928
  C         4.9594234488        6.4018119923        1.3392953221
  S        11.5893706057       -1.8908830894        0.6237860658
  N        12.0249117741       -1.4466122373       -0.8559006633
  C        12.4740419058        0.6706235934       -2.0494780080
  H        12.5739157078        2.8152847321       -2.7896673889
  C         5.7487171163        6.9846451422       19.5534052885
  N         5.9637785552        8.3143560859       19.6399242571
  O         6.7774001414       10.0152190582       18.4079229175
  H        17.6202235115        6.3384276456        5.0114284392
  H        16.8512175503        7.2576989819        6.2248626316
  C        17.8255055097        5.3453900702        6.8366433508
  H         5.3453450889        6.8762295439        0.4390124274
  H         4.1667471568        5.7268183724        1.0272910236
  C         4.3545833111        7.5913533418        2.1257089650
  C        12.7949746198       -0.0179754631       -3.2097588095
  S         5.2985203594        6.2112226224       21.0832469444
  C         6.0755166977        9.1084381284       20.8951040093
  H        17.2417731848        5.4499002910        7.8359681670
  H        17.9472219401        4.3663943082        6.3823388020
  C        19.2109516524        5.8751358921        7.0833396836
  H         5.0693700976        8.1606664929        2.6642538391
  H         3.7590814603        7.1337251844        2.8899890909
  C         3.5465368368        8.4262472992        1.1542080392
  H        12.8201902422       -1.1120895109       -3.0885440135
  C        13.3455496906        0.3033084566       -4.4191548920
  H         5.5626922035        8.6240604638       21.7159398557
  H         5.5888234264       10.0732489287       20.8950477302
  C         7.5487060136        9.3239800611       21.3465122924
  H        19.6934120930        5.5209035439        7.9377124402
  H        19.2231635157        6.9494823816        7.2937693545
  C        20.2323630576        5.4870490388        5.9542113970
  H         3.2290303229        7.7706037497        0.3544017156
  H         2.7551173024        8.8542841178        1.8091490944
  C         4.3645043069        9.6672731680        0.6278477367
  S        13.9303171513        1.8261800643       -4.8539497115
  C        13.4361485261       -0.7652657064       -5.4322539427
  H         7.6909647098        8.9470043934       22.3414125764
  H         7.8108283162       10.3773480998       21.2553146590
  H         8.2270289713        8.7649825357       20.7188352039
  H        19.8548566350        4.6597002203        5.3421465198
  H        20.1892831567        6.3083532675        5.2328615042
  H        21.2722213024        5.3181635819        6.2619586178
  H         3.9914142619       10.5788507524        1.0791198982
  H         5.3979836349        9.6084390172        0.9215986266
  H         4.1718512510        9.7569470596       -0.4639032958
  C        14.0987039162        1.1810425011       -6.4775804703
  N        13.9464960786       -0.1879767447       -6.5229466719
  O        13.0714697110       -1.9104996428       -5.3573263521
  S        14.8482891401        2.0810477510       -7.8279471968
  C        14.2541738629       -1.0154636639       -7.7068884251
  H        14.3465378975       -2.0926916490       -7.4601198978
  H        15.1443502565       -0.6977272555       -8.2018157201
  C        13.0841675794       -0.8593822883       -8.7341132823
  H        12.2105605402       -0.6797910119       -8.1282351239
  H        12.9062934882       -1.6146457013       -9.4951612675
  H        13.1736921109        0.0545548843       -9.3706221626
  H        -3.2659533981       14.7390943568       16.1450314456
  C        -2.9082588669       13.7411596975       16.2023432983
  H        -3.8417873167       13.2661911775       16.5263809231
  C        -1.8232473247       13.4588028515       17.2902288627
  C        -2.4116619388       13.3581381202       14.7926750489
  C        -2.3966189049       13.7001080443       18.6657649492
  H        -1.7480436766       12.3691659171       17.2948385993
  H        -0.8511155970       13.9007565046       17.0147968142
  H        -3.1685606640       13.4048495249       14.0980163560
  H        -1.6816178983       14.0876310991       14.4312164726
  H        -1.9483555016       12.3962549678       14.7236446980
  C        -1.3855284257       13.4582879511       19.7467013422
  H        -3.2529092690       13.0494606038       18.8106240995
  H        -2.8387125990       14.7353943376       18.7411705221
  C        -2.1127323034       13.5634091557       21.0638631721
  H        -0.9149688832       12.4726746238       19.5646677520
  H        -0.5679252156       14.2450596982       19.5667332884
  C        -1.2831243125       13.0748110524       22.3572127718
  H        -2.9312340855       12.8807857034       20.9226163558
  H        -2.6333784425       14.5584037890       21.2261432838
  C        -0.0211481960       13.9445816862       22.6484498981
  H        -1.8657791794       12.9877406444       23.2651073290
  H        -0.9045491390       12.1524493384       22.0874724096
  C         1.1486945827       13.1356976350       23.3033721939
  H         0.3799509045       14.3671490255       21.7512654142
  H        -0.1996496711       14.6764636775       23.4043400713
  C         1.4656291476       11.8083807802       22.6118017440
  C         0.7299737019       12.4461782121       24.5685117715
  C         2.4167848879       14.0687217702       23.5777329527
  C         1.1621491051       10.6983814202       23.3961706657
  C         1.8267772073       11.4218968245       21.3023089141
  C         0.7253093057       11.0974209276       24.6577123743
  C         0.2439124364       13.0780796831       25.6978210260
  H         2.5905145565       14.5423668889       22.5781540151
  H         2.2230198971       14.9051660346       24.3050387997
  C         3.7381748891       13.3525159857       24.0227110413
  S         1.4948273326        9.1570316828       22.5678106519
  C         1.8234192738       10.0626711600       21.1327187941
  H         1.9553383601       12.2068763145       20.5111123595
  C         0.1867649756       10.5101964190       25.7781491167
  H         0.1568213482       14.1502680410       25.6644242090
  C        -0.1874631102       12.4822743788       26.8771049301
  H         3.8778852416       12.4710707965       23.3773491777
  H         3.7753585571       12.9980997987       25.0631240662
  C         5.0860220221       14.0880035512       23.8255327828
  C         2.2820078130        9.3767017269       19.8696229533
  C        -0.1745695118       11.1571595482       26.9622916796
  H         0.0998214174        9.3723284759       25.6671736160
  C        -0.5559038183       12.9018660714       28.0859163409
  H         5.9123189711       13.4677697201       24.2113472251
  H         5.1344277897       15.0920743686       24.3828297518
  C         5.4114249996       14.3435386531       22.2926129282
  C         2.2408007621        7.9945992719       19.5889432708
  C         2.8021732426       10.2722056417       18.7813812235
  C        -0.6703958559       10.4569444937       28.1423908531
  C        -0.8146537389       11.8105942704       28.8818110583
  S        -0.7136354702       14.4059468362       28.9469802707
  H         6.2057164997       15.0932227670       22.2961270428
  H         4.6671637743       14.7489374346       21.6494273769
  C         6.0454520277       13.1613355362       21.5984325660
  N         1.8900449009        6.9832292632       20.4039251754
  C         2.5914807445        7.4212191981       18.3139484664
  C         3.2253628764        9.7091397021       17.5663292401
  H         2.8049869362       11.3342491638       18.9094922221
  C         0.5144293470        9.6243186731       28.6315647695
  C        -2.0004011341        9.6151447541       27.8112538079
  C        -1.3061987471       12.2162158256       30.1981249204
  C        -1.2311425007       13.5789486451       30.3293993664
  H         7.1510621437       13.1823975953       21.7070230930
  H         5.6409790488       12.2972876579       22.0106518276
  C         5.7692328862       13.0966582370       20.0330288117
  S         2.1504492115        5.5358538325       19.7325719737
  N         2.7032917589        6.0633489846       18.3198897519
  C         3.0695258206        8.2840649315       17.1969215189
  H         3.5934952295       10.4615763315       16.9043583418
  H         0.6559750303        8.8721893566       27.8662202890
  H         0.2293147927        8.9846679767       29.4804222695
  C         1.8180564754       10.3913950454       29.0769785465
  H        -1.6833864307        8.7824998346       27.1673282143
  H        -2.2128930287        9.0784236455       28.7770538281
  C        -3.2040515759       10.5038567425       27.4737777582
  H        -1.6852704522       11.4623480159       30.8447780541
  C        -1.4573019517       14.3147678630       31.5628532030
  H         4.7315674149       13.2974199441       19.8389660810
  H         5.8695897086       12.0953197269       19.6925004923
  C         6.7479692789       13.9180393210       19.1330147024
  C         3.3395089250        7.6112467136       15.9818180543
  H         2.1725139580       11.0979019601       28.3653555076
  H         1.6549057404       11.0733467203       29.8437116865
  C         2.9657913865        9.4407191263       29.4173707987
  H        -2.9526700559       11.2809887322       26.7497322155
  H        -3.5253469630       11.0423511671       28.3622194083
  C        -4.3978240483        9.7274849280       26.8171834900
  C        -1.6117466770       15.7077752299       31.6790165228
  C        -1.6311990309       13.5338430504       32.8611432392
  H         6.3833293560       14.8686408091       18.7249896763
  H         7.5812582711       14.1244335919       19.7974309466
  C         7.1427376056       13.0743819588       17.9088137210
  H         3.1493491011        6.5632734729       15.9779305422
  C         3.7155992446        8.0569153283       14.7660040108
  H         2.9544957244        8.8693764825       28.5040836916
  H         2.7937387442        8.7833656855       30.1895315685
  C         4.3656622891        9.9001286857       29.8080384471
  H        -4.0773708898        9.7469095353       25.7758699280
  H        -4.5470399684        8.6755977999       27.2412309989
  C        -5.7784271344       10.4096027114       27.0724035753
  N        -1.2993749395       16.6915478392       30.6862319045
  C        -1.9289865434       16.3527604600       32.8405851562
  C        -1.9367260279       14.1953287674       34.0175477059
  H        -1.5069939511       12.4489177552       32.8064861265
  H         7.4150879946       13.7762717810       17.0729437310
  H         7.9732188192       12.3838014519       18.0659276458
  H         6.3348222063       12.5306750793       17.4838511559
  S         4.0802582847        9.6269206816       14.2580460647
  C         3.8941151506        7.0137415605       13.7074858837
  H         4.4498414998       10.7850478146       29.1597785624
  H         4.3640085749       10.2507844546       30.8528023871
  C         5.5288633747        8.8876747980       29.5758284624
  H        -5.6783547927       11.3171955399       27.7285639695
  H        -6.3485251815        9.6790387187       27.5595033609
  C        -6.5305905012       10.8966111794       25.7703356956
  S        -1.4138885448       18.1641686449       31.3050092671
  N        -1.9490032027       17.6713004998       32.7310201836
  C        -2.1634525943       15.6720179102       34.0390211736
  H        -2.0135819801       13.6106424535       34.8869341084
  C         4.3701620660        8.8840470671       12.5876934319
  N         4.3710221938        7.5557891002       12.5717592841
  O         3.6811604010        5.7777156160       13.8790684666
  H         6.3795639844        9.4336656677       29.2132914360
  H         5.3830145772        8.2130213678       28.7216556769
  C         5.9204303592        8.0629249847       30.7217721244
  H        -5.9520237387       11.7783607795       25.3563291100
  H        -6.5201220240       10.1363408224       24.9607493832
  C        -7.9973826697       11.2512740238       26.0335563431
  C        -2.4720667971       16.4612015308       35.1688895107
  S         4.8666907136        9.8352229871       11.1501988520
  C         4.3701680721        6.8396111357       11.3126814454
  H         7.0071912390        8.0145184989       30.6515417425
  H         5.8233968012        8.5741082646       31.6638313599
  C         5.2031061647        6.7335384518       30.7726746659
  H        -8.2840400929       12.2924405869       25.7094116139
  H        -8.1848105010       11.2016543303       27.1373075879
  C        -8.8753412183       10.2578249461       25.2909949561
  H        -2.0555170946       17.4230849489       35.1922884618
  C        -2.9583871600       16.0984875705       36.3989923424
  H         5.0063983734        7.3503692583       10.5689102982
  H         4.7757855328        5.8454829324       11.4348218006
  C         2.9606771136        6.8246060091       10.6854201016
  H         4.8411554195        6.4696015279       29.7495559020
  H         4.3258697035        6.7658177020       31.4792991282
  C         6.2503345149        5.6502301300       31.2074553881
  H        -9.0042917600       10.3682778551       24.2208960649
  H        -8.4029551975        9.2465306296       25.4612738513
  C       -10.1914251990       10.1351215018       25.8838820617
  S        -3.6223381754       14.5350721538       36.8170282457
  C        -3.0296641756       17.1461976267       37.4076044938
  H         2.8817955022        7.8255249818       10.2349670159
  H         2.9421603935        6.0919923576        9.9418712834
  H         2.0616320113        6.6966817916       11.3101096225
  H         7.0201345345        5.9963538998       31.9527352102
  H         6.7822965083        5.2434221916       30.3799297536
  H         5.6327336295        4.9480047947       31.6532619872
  H       -10.5210678194       11.1085456548       26.3246784788
  H       -10.1547521504        9.5012133615       26.7575128535
  H       -10.9614316006        9.8135107025       25.1865669509
  C        -4.0502130001       15.3330760802       38.3200051022
  N        -3.7913294501       16.6948797734       38.4209747007
  O        -2.5868722238       18.3448776190       37.2342525731
  S        -4.9177303628       14.5596993435       39.5710524246
  C        -3.8643051247       17.4055775434       39.6811381021
  H        -3.9360113068       18.4554111037       39.5183871029
  H        -4.7219518037       17.1668873037       40.3988700582
  C        -2.5825581168       17.2732094181       40.3883070133
  H        -2.1912364888       16.3001035783       40.3130934368
  H        -1.8335589123       17.9420736820       39.9797499072
  H        -2.7747093480       17.4327784485       41.3846800158
