352
i=
  H         4.2950287249        1.4479702085       12.6482557460
  C         3.8632247351        2.4520246828       12.7145050855
  H         4.5951199013        3.1698173929       12.5939174443
  C         2.9558276058        2.6006225769       11.4461467852
  C         3.0371793252        2.4162060970       14.0326344143
  C         3.6136939609        2.7833206274       10.0406928384
  H         2.4237664813        3.4853669811       11.7082264620
  H         2.3054148722        1.7384022071       11.3902530431
  H         3.4998338142        1.8764050463       14.7753289793
  H         2.0779109545        1.9554063456       13.7726933643
  H         2.8029456097        3.4102567351       14.3348158354
  C         4.3859330659        1.5520784564        9.5175823119
  H         2.8730201117        2.9471792684        9.3913550697
  H         4.1464097897        3.6913098486       10.0650570022
  C         5.1122884246        1.8917406835        8.2309246360
  H         3.7033345866        0.8107994022        9.2570714698
  H         5.0846298887        1.2304626823       10.2524783727
  C         6.3926717504        2.7895909740        8.2799698016
  H         4.3737305177        2.3014983756        7.5735829884
  H         5.2198233320        0.9113867869        7.6951094187
  C         7.6624381538        2.0702058588        8.6641216460
  H         6.5054144818        3.2981746954        7.3316649707
  H         6.0988239256        3.6035686795        8.9448677147
  C         8.8679548406        2.9404697999        8.9964739710
  H         7.9073239417        1.2811463142        7.9790923520
  H         7.3739200262        1.5891656634        9.5714323484
  C         8.4743237685        4.3195774553        9.6059556363
  C         9.5163116109        3.5566858754        7.8520517231
  C         9.9371382360        2.2667647634        9.8644512512
  C         8.8994855389        5.3607201704        8.8350230340
  C         7.9080481335        4.7067223121       10.7863278377
  C         9.5295197583        4.9117269479        7.7283870100
  C         9.9528359582        2.9700887759        6.6436729736
  H         9.4940553822        1.6593945535       10.6953865872
  H        10.4771456524        1.5275352434        9.2460279417
  C        11.0527297994        3.2240535772       10.3771903685
  S         8.4153497802        6.8644327844        9.5411170905
  C         7.8262773220        6.0671185377       10.9309719316
  H         7.6207796238        3.8904289411       11.4048051932
  C         9.9755954600        5.5311736542        6.5890841887
  H         9.8939709497        1.8793020395        6.5760193460
  C        10.4128574853        3.6222976706        5.5088567331
  H        10.7016580928        4.1928179649       10.5691028361
  H        11.8440038888        3.3310798815        9.6348085855
  C        11.8332335427        2.6435431786       11.5536440533
  C         7.5269303371        6.7154207788       12.2050773818
  C        10.4681221443        4.9457462448        5.4200210506
  H         9.8784846196        6.6404904817        6.5264120053
  C        10.7561266959        3.1165260021        4.2907556725
  H        12.7553914587        3.2691934454       11.7253742843
  H        12.2109561576        1.7223075641       11.2422082376
  C        11.0606355497        2.5858013194       12.9255586134
  C         7.6145978148        8.1029387545       12.5252111830
  C         6.9646817900        5.9806835294       13.3443778581
  C        10.8251686469        5.5315883101        4.0826096275
  C        11.0483792141        4.1626007544        3.4621535009
  S        11.0226551088        1.5760906038        3.6522116558
  H        10.9083885341        3.6005492733       13.1239341260
  H        10.0598947057        2.1035003647       12.8189942653
  C        11.9956681375        1.8830356734       13.9950481191
  N         7.9959786387        8.9998172025       11.5742332753
  C         7.3924836929        8.7108634253       13.7674227363
  C         6.6847972408        6.5171566706       14.6142219687
  H         6.8274988011        4.9398382442       13.2595639697
  C        12.1876594187        6.2228230011        4.2407618858
  C         9.8140015234        6.4166250623        3.2512592117
  C        11.2389747862        3.6886113925        2.1679753138
  C        11.4821793753        2.3558572253        2.1204513135
  H        12.9585582812        1.9813364734       13.6348888947
  H        11.8317520269        0.8047276522       13.7992099265
  C        11.9748758285        2.4103696903       15.3812187630
  S         7.9159615356       10.4539071691       12.2502634857
  N         7.5851455898       10.0129559817       13.7453591446
  C         6.8933475037        8.0032895000       14.8871173044
  H         6.1581638408        5.8999321100       15.2856402101
  H        12.0101279260        7.0673998910        4.9386268880
  H        12.4077137414        6.6175811654        3.1994115570
  C        13.4054207119        5.3207176747        4.6316949131
  H         9.5723471722        7.3056000212        3.8916740694
  H        10.3268733171        6.8892676598        2.3820683947
  C         8.5882617723        5.6258415018        2.7838894866
  H        11.3147766917        4.3380752762        1.3285781608
  C        11.7651408008        1.6550460813        0.8599820397
  H        11.9613139016        3.5074544143       15.4703039266
  H        11.0554142628        2.1044943094       15.8216842603
  C        13.1913923257        1.9896572631       16.2313263636
  C         6.6325641674        8.7118618319       16.1025309439
  H        13.0274442073        4.6763771594        5.5222282050
  H        13.5505774125        4.6507714038        3.7716184526
  C        14.6870252531        5.9558501612        5.1482588773
  H         8.1937017429        5.0548294118        3.6100273651
  H         8.8920190806        4.9489271914        1.9673687897
  C         7.5864166073        6.5994599277        2.2734226686
  C        11.8546840890        0.2207987985        0.7246162971
  C        11.8220247674        2.3846681064       -0.4169378669
  H        14.1302276098        2.3977179726       15.8094557067
  H        13.2950520923        0.8871169164       16.2631816712
  C        12.9226088029        2.4688589431       17.6435721732
  H         6.8234670755        9.7788337073       16.1287267679
  C         6.4159587176        8.2183784352       17.3346528235
  H        14.3820395397        6.7379638583        5.8415924857
  H        15.1887590013        6.4820943051        4.3254942519
  C        15.6775312408        5.1556711552        5.9946270785
  H         7.3013481336        7.4225631991        2.9890434615
  H         7.9618629607        7.1716406325        1.3971562889
  C         6.2792079064        5.9264280795        2.0797532102
  N        11.7250726845       -0.7170265314        1.7402160255
  C        12.0203408474       -0.4143206363       -0.4647601751
  C        12.1870878743        1.8100567935       -1.5905865263
  H        11.5201496902        3.4110004979       -0.4868521869
  H        13.1205024975        3.4950697265       17.8028829986
  H        13.5986091356        1.9665357948       18.3529653760
  H        11.9489570420        2.1093222647       18.0256967224
  S         6.4315618543        6.5375858334       17.8052402843
  C         6.0091958928        9.1720477776       18.4107254284
  H        15.1497595607        4.4746774923        6.5788532705
  H        16.2934382559        4.4948985543        5.3885249203
  C        16.4998935432        6.0514997361        6.8895815009
  H         5.8522785418        5.5079843422        2.9705347648
  H         6.4315715265        5.0728298935        1.5033698333
  C         5.2171048761        6.8089752505        1.4412067491
  S        12.0481179047       -2.1512913466        1.1153221941
  N        11.9696982225       -1.7723728004       -0.4101645391
  C        12.2897667986        0.3109491666       -1.6349739008
  H        12.3434896155        2.4344541952       -2.4732680447
  C         6.0317356289        7.1254613656       19.3627511297
  N         5.7664999056        8.4581069186       19.4938830188
  O         6.0017445273       10.3915319596       18.2742805778
  H        16.7339766488        6.9782895622        6.3371994633
  H        15.9181132653        6.2647487447        7.7473151129
  C        17.8077730998        5.3970713175        7.3130029160
  H         5.5965016702        7.3438404668        0.5586641244
  H         4.4508768238        6.1564594241        1.0467377219
  C         4.6184891546        7.8244501848        2.4681057879
  C        12.4598259729       -0.3825031654       -2.8397299213
  S         5.6202243922        6.0476073831       20.7151638783
  C         5.6216475374        9.1021194515       20.8101646486
  H        17.7168406465        4.7550158567        8.2258685297
  H        18.1271425347        4.6785279058        6.6184550111
  C        19.0277507945        6.2845564414        7.5027958505
  H         5.4557832008        8.4533034191        2.7749403487
  H         4.2433358771        7.2360059580        3.3235710299
  C         3.5580371076        8.7921932495        1.9961400862
  H        12.1872981117       -1.4412867646       -2.7453717808
  C        13.0013012360       -0.1263040877       -4.0688020768
  H         4.9485408727        8.5368578590       21.4683848094
  H         5.2299077475       10.1515935264       20.7522819369
  C         6.9915467063        9.0607328111       21.5377579546
  H        19.6505948658        5.7106277164        8.1362971434
  H        18.7225285665        7.2035122618        8.0583490122
  C        19.6996823493        6.6125063410        6.1742655582
  H         2.5188391818        8.4410103362        2.0661455387
  H         3.6404132000        9.6587727412        2.7217889852
  C         3.7360162065        9.3397829906        0.5953778657
  S        13.7268652561        1.3773594085       -4.6254938245
  C        12.9749651419       -1.2049111682       -5.0631444856
  H         7.7875950892        8.8151514653       20.7345468308
  H         7.0282609561        8.3677487933       22.3011568619
  H         7.3965263474       10.0076333460       21.9557287389
  H        20.7138561174        6.9267261185        6.3618520326
  H        19.7784355681        5.7750237049        5.4250984928
  H        19.1627089988        7.4793350812        5.7614250823
  H         3.2600012372       10.2951337466        0.5207576594
  H         4.7889573618        9.5870261958        0.4448441585
  H         3.2973530507        8.6786842814       -0.1542817811
  C        13.9293873821        0.4938489907       -6.1655630289
  N        13.5589568395       -0.8006927637       -6.2092459930
  O        12.6857602009       -2.4077228411       -4.8600551543
  S        14.2801939903        1.2147282423       -7.6919339795
  C        13.4646613408       -1.5926712624       -7.4168987554
  H        13.5471553703       -2.5870231951       -7.2406812848
  H        14.2329094683       -1.4171345540       -8.1391636298
  C        12.1558518937       -1.3667062232       -8.1125332155
  H        11.4011214665       -2.1602510352       -7.9241960008
  H        12.2991709825       -1.4682183023       -9.2005007279
  H        11.7323965997       -0.3445930028       -8.0028278371
  H        -3.7106946991       13.3881004759       16.0189119546
  C        -2.7178662899       13.6125312804       16.3170802967
  H        -2.0916766151       12.7773530360       16.7041571474
  C        -2.7869499110       14.6337851944       17.4425346930
  C        -1.9272214053       14.0852029903       14.9934617145
  C        -3.3941630970       14.0590194570       18.7589238821
  H        -1.8916210428       15.1961308830       17.6172173071
  H        -3.4076490331       15.4503387806       17.0806227052
  H        -1.6865236161       13.1501789743       14.5211759011
  H        -2.6621699964       14.5569040432       14.2842758820
  H        -1.0590082425       14.7267401374       15.1699967324
  C        -2.3293269041       13.4213151512       19.6483069009
  H        -4.2038938637       13.3231656756       18.5479391357
  H        -3.9850306605       14.8077515114       19.2257375451
  C        -2.6383587816       13.7691455138       21.0929171049
  H        -2.4405260740       12.3312945868       19.4930767409
  H        -1.3899291656       13.7249466951       19.3054505568
  C        -1.6904054238       13.0755542029       22.0272114600
  H        -3.5648576891       13.3152252662       21.3586742886
  H        -2.7038308555       14.8662808504       21.2478119829
  C        -0.4847197049       13.9839621424       22.3186593406
  H        -2.1383558685       12.6936244871       23.0063762877
  H        -1.2852565098       12.1587177868       21.5597332284
  C         0.6994180724       13.3171485814       23.0623625470
  H        -0.1210087812       14.4021784648       21.2819816435
  H        -0.8199756004       14.7448071046       22.9648733517
  C         1.1984303692       11.9427082877       22.4188086229
  C         0.3437777311       12.5451744182       24.2957238246
  C         1.8779484437       14.3032172996       23.2367889088
  C         1.1069574652       10.8208820857       23.2407110357
  C         1.6211526023       11.5637057810       21.0987209169
  C         0.4787770154       11.1696310535       24.4583824758
  C        -0.1139321729       13.1574047403       25.4996462344
  H         2.0042866022       14.9133517637       22.2827070032
  H         1.5532353980       15.0718875810       23.9303074139
  C         3.1960092623       13.6901883151       23.5868557676
  S         1.5541736873        9.3316141692       22.4525659008
  C         1.8840681700       10.2069317821       20.9922367147
  H         1.7752700743       12.2853454080       20.2892577470
  C         0.1142681937       10.4938524490       25.5646775433
  H        -0.1710907040       14.1937365291       25.6898360543
  C        -0.4421696136       12.4568871832       26.6350130562
  H         3.3757232044       13.0274154046       22.7789086468
  H         3.0536076728       13.1840974065       24.5664258555
  C         4.3464682081       14.6572172397       23.7638155903
  C         2.3340603254        9.4629947632       19.7664630977
  C        -0.3647947126       11.0963288449       26.7919316508
  H         0.1801529985        9.3897193072       25.6313158597
  C        -0.8186650331       12.8870966566       27.9107609342
  H         5.0321764232       14.1778613467       24.5045021720
  H         4.0008545790       15.5971003470       24.1938928883
  C         5.0062302383       14.7893671518       22.3879269653
  C         2.3419127347        8.0843682039       19.4922078199
  C         2.5941328823       10.3273111423       18.5478288798
  C        -0.7224670961       10.4038352676       28.0293396026
  C        -0.9754765865       11.7490470443       28.7048018799
  S        -1.1456507422       14.4490812460       28.6614990407
  H         5.2754276927       15.7771831112       22.1583865737
  H         4.1997193798       14.7371502966       21.6101744473
  C         6.1194231429       13.7513351378       22.2209322011
  N         2.2212031187        7.0996672529       20.4880533533
  C         2.5310895457        7.5310002585       18.2105982416
  C         2.8237311813        9.7208669026       17.2725792677
  H         2.6536034571       11.4196640204       18.7099634497
  C         0.4594145472        9.5929380144       28.6624627298
  C        -1.8958505664        9.5258921429       27.8413981677
  C        -1.3567209557       12.1876669875       30.0023084526
  C        -1.5164860364       13.5537424818       30.1429701103
  H         7.1314193629       14.1800947451       22.2735382759
  H         6.0509031356       12.9263512677       22.9102395024
  C         6.0443476610       13.0734358815       20.8308243805
  S         2.1553591007        5.6080212676       19.7220027642
  N         2.4436264958        6.1803197631       18.2060931615
  C         2.8581388371        8.2860564248       17.0565728091
  H         3.0038254893       10.4480840663       16.5353667661
  H         0.7251289758        8.8365453264       28.0187388647
  H         0.0473714933        9.1486052361       29.5083118293
  C         1.6308190253       10.5089298527       29.1261733836
  H        -1.6758837227        8.6553867832       27.1758976647
  H        -2.1258794272        9.2721946482       28.8052163387
  C        -3.1028308768       10.2690804999       27.2564449767
  H        -1.5977237630       11.4179095234       30.7229909082
  C        -1.8604550948       14.2651890846       31.4200412352
  H         4.9871634633       12.6378333737       20.6515935790
  H         6.7562390142       12.2585146782       20.9354273270
  C         6.5497668964       13.8790862902       19.7698618155
  C         3.2213845939        7.5886961162       15.8847665794
  H         1.9433504302       11.1281397236       28.3332619861
  H         1.4424492822       11.0563829510       30.0670866069
  C         2.7936469172        9.6476482825       29.2913197361
  H        -2.8671703365       10.6097450555       26.2625246020
  H        -3.2331867860       11.1540365196       27.8317874978
  C        -4.3767159853        9.4153922370       27.1884828065
  C        -1.9358970440       15.6789393784       31.6694294572
  C        -1.9255114783       13.4902551586       32.6917803518
  H         6.1797278210       13.4910419470       18.8354558291
  H         6.3191972750       14.9100152994       19.7484993139
  C         8.0502585362       13.7595295231       19.7593112594
  H         3.0765505990        6.5487920533       15.9376918566
  C         3.5825394045        8.0448894850       14.6662527590
  H         3.1133305809        9.1827185460       28.3680333686
  H         2.4394278834        8.8609090976       29.8982429709
  C         4.0758745006       10.2943576240       29.8492193369
  H        -4.2508116468        8.5825945917       26.5489549268
  H        -4.5285565693        8.8874311909       28.1053252910
  C        -5.6621001035       10.1629685270       26.9289947598
  N        -1.7755775778       16.6946010087       30.7272351469
  C        -2.1872246039       16.1979744101       32.9365495256
  C        -2.1787684182       14.0742519841       33.9026981406
  H        -1.9724898779       12.4796308958       32.7476987061
  H         8.3525142358       14.2024578514       18.8096109550
  H         8.5211573882       14.3096994291       20.5778898613
  H         8.6030119662       12.8048672333       19.7088649687
  S         3.9145011161        9.6995123614       14.1760918998
  C         3.6284516795        7.0286416415       13.5766166129
  H         4.5172424018       11.0696162139       29.2044507922
  H         3.8215638669       10.6854662358       30.8343025587
  C         5.1510297904        9.2167547562       30.0045498522
  H        -5.6339729566       11.0947952439       27.5491720760
  H        -6.4520156180        9.5756522894       27.3981681108
  C        -5.9095401529       10.3998331693       25.4693842601
  S        -1.9281251105       18.0926859605       31.4861837282
  N        -2.1820931300       17.5824932503       33.0026680383
  C        -2.2658114281       15.4803864120       34.0917992955
  H        -2.3312428061       13.4490030833       34.7680266690
  C         4.0927183297        9.0433656433       12.5725570431
  N         3.9654652263        7.6858245246       12.4369922556
  O         3.5255852003        5.7716547764       13.7623388190
  H         6.0150553996        9.8477322617       30.3435757714
  H         5.3549578728        8.6831880861       29.1064766458
  C         4.7874632524        8.2205971813       31.1050856679
  H        -5.1553389755       11.0505488335       25.0485692744
  H        -5.8608444789        9.4557648052       24.9690898249
  C        -7.1903487760       11.0909358242       25.1679340679
  C        -2.6154016315       16.1629558040       35.2924398550
  S         4.4902939545        9.8629625090       11.1271131781
  C         4.1053970074        7.0226400492       11.1778361716
  H         5.0974130596        8.6066044543       32.0932710985
  H         3.7419710473        8.0192260376       31.2855178186
  C         5.3197193628        6.8050453817       30.9335252161
  H        -7.0658711796       11.5074659602       24.1672770564
  H        -7.2165949477       12.0170172447       25.7534379500
  C        -8.4214525325       10.1488416414       25.3445688734
  H        -2.2976781592       17.1768290487       35.3352772117
  C        -3.1595175627       15.8163503289       36.4690818150
  H         4.9199911315        7.4028886502       10.5658348102
  H         4.6114220462        6.1233385870       11.5600006737
  C         2.8474008921        6.8088431168       10.4372816255
  H         4.7200488300        6.3679220794       30.1220253336
  H         4.9499129495        6.3217560554       31.7965704431
  C         6.8216310753        6.5619160019       30.7766752039
  H        -9.0551307289       10.2958883618       24.4050189120
  H        -8.1216860795        9.0518706270       25.4853247564
  C        -9.3037373116       10.3707761488       26.6428772123
  S        -3.7134866121       14.2476424770       36.9349864921
  C        -3.2660745474       16.8590926278       37.5673662023
  H         2.0646867399        7.6095000790       10.6079350936
  H         2.9399412571        6.6884348257        9.4060789197
  H         2.4221565996        5.8599440580       10.7712168663
  H         7.3318733857        7.1540023286       31.5409070738
  H         7.0909570691        6.8443947977       29.7480709819
  H         7.0500223110        5.5361687860       30.8782550568
  H        -8.8370359572       10.0583481225       27.5599513353
  H       -10.3060667056        9.9792433733       26.5466003876
  H        -9.4663976129       11.4438539967       26.7432304236
  C        -4.1227125511       15.0015077681       38.5263438308
  N        -3.8495885684       16.2967718728       38.6913336117
  O        -2.9097006252       17.9984795684       37.4251610196
  S        -4.8069638700       14.1017381007       39.9354712456
  C        -4.0610849034       17.0997840197       39.8172318930
  H        -4.6107174575       17.9629881432       39.5047268145
  H        -4.8182763005       16.6342653406       40.5020700843
  C        -2.8574503152       17.4722815768       40.6366596075
  H        -3.1934245823       18.0893982891       41.4390286761
  H        -2.5029945615       16.5942335519       41.1616152596
  H        -2.0920110960       17.9300404008       39.9963571903
