352
i=
  H         3.9187951829        3.6217029667       12.6717949432
  C         2.9808711689        3.0548388700       12.6606792520
  H         2.1527737567        3.7165517582       12.9612368532
  C         2.4637271630        2.5511737720       11.2494805662
  C         3.0763095864        1.9967577342       13.6854459897
  C         3.3893189795        2.7739151847       10.1035749893
  H         1.5339569099        3.0645076694       10.9728649260
  H         2.2120466644        1.4302628591       11.1966023891
  H         2.1098445950        1.3753533836       13.6470733457
  H         3.1062052466        2.4374710799       14.6891279663
  H         3.9371155791        1.4002477379       13.5938301215
  C         4.4303715503        1.6690703756        9.9128051252
  H         2.7153804050        2.7298475008        9.2599802902
  H         3.9177451994        3.6909120231       10.2014064428
  C         5.0793921189        1.8538788687        8.5427113276
  H         3.8880011429        0.7349199751        9.9528623902
  H         5.1604257820        1.7434245778       10.6988925943
  C         6.3504890857        2.7444800594        8.6062327538
  H         4.4050476913        2.3012197095        7.8237742458
  H         5.3494729944        0.9008121464        8.0916647105
  C         7.5761376202        1.9682948662        9.1229636052
  H         6.5766289915        3.2925338480        7.7501327643
  H         6.1439965707        3.5570255203        9.2610597477
  C         8.8825383844        2.8665834468        9.3886525367
  H         7.8854564676        1.2022214016        8.3616947489
  H         7.2976788958        1.4208926702       10.0322387380
  C         8.4423558926        4.1899113526       10.0288858407
  C         9.3354683483        3.5906682793        8.2080253562
  C         9.9787668046        2.1338712700       10.0639403003
  C         8.7839964855        5.3170857439        9.3470353303
  C         7.7183767369        4.5105044026       11.1936180370
  C         9.3047902882        4.9592445770        8.1036405801
  C         9.8159436053        2.9538217588        7.0539255146
  H         9.7262026431        1.7482441340       11.0631336849
  H        10.1159526884        1.2608985508        9.3905409224
  C        11.3231379802        2.9186472482       10.1927741051
  S         8.4113191142        6.7512476783       10.1568115165
  C         7.8818300679        5.8339501364       11.4888230664
  H         7.2676647832        3.6956670432       11.7013356721
  C         9.6671649591        5.5669047409        6.9480041683
  H         9.8185164327        1.8819399041        7.0304742730
  C        10.1937770250        3.5920566514        5.8816756088
  H        11.3227101696        4.0654438993       10.3567868076
  H        11.7415395555        2.8121705955        9.2210462929
  C        12.2760898652        2.1861274078       11.2008512938
  C         7.3020651618        6.5756502387       12.6824473213
  C        10.1402896019        4.9311537780        5.8072315904
  H         9.5839975392        6.6493417008        6.9223749859
  C        10.5661057965        3.2042254428        4.6080226517
  H        13.2068563520        2.6512563243       11.0025161693
  H        12.3077789685        1.1050232261       11.1356323769
  C        11.7475773252        2.6132117776       12.5765636944
  C         7.4486312026        7.9445325215       13.0063460912
  C         6.6699179824        5.6729053893       13.7066780215
  C        10.4903409382        5.5710514914        4.5103014967
  C        10.6837550380        4.2917560660        3.7670947690
  S        10.8810781047        1.7065303238        3.8397953777
  H        12.5098017222        3.0791375243       13.0861724162
  H        11.0209053456        3.4016887586       12.4315133440
  C        11.2440339397        1.4420700725       13.5404550655
  N         7.8807492236        8.9502862986       12.2032137780
  C         7.1250603391        8.4072663844       14.2825269702
  C         6.2934395604        6.2062446114       14.9191241951
  H         6.3623684845        4.7220412277       13.4735129381
  C        11.7653807402        6.4881604638        4.6329893659
  C         9.2372639753        6.2787398157        3.8969038175
  C        11.0787002335        3.8855162971        2.4761744981
  C        11.2210008117        2.5177543834        2.3859704400
  H        11.9643645507        0.6752295461       13.3810608362
  H        10.2633654227        1.0044751952       13.1384138377
  C        11.0729081001        1.8736896232       15.0054183640
  S         7.9993354724       10.3494856666       13.0526881636
  N         7.3206787984        9.7921539354       14.4308576461
  C         6.6368098577        7.5928637507       15.3371231964
  H         5.9281003015        5.5275939577       15.6051626358
  H        11.4867336512        7.2782996842        5.3596660432
  H        12.0212416829        7.0730175924        3.6862800758
  C        13.0071966275        5.6730294610        4.9530444845
  H         9.0926996150        7.2482731372        4.4016005680
  H         9.5550423148        6.5798672541        2.8853263396
  C         7.9072027099        5.4288295424        3.8919843441
  H        11.0628981057        4.6758691601        1.7110896071
  C        11.5319109645        1.7760641560        1.1409919991
  H        10.8301824779        2.9494515001       14.9917544734
  H        10.1412083430        1.4184989006       15.3554071920
  C        12.3613079075        1.6980800945       15.7521766047
  C         6.5830370103        8.2038070957       16.6173209719
  H        12.8880353370        5.1459637403        5.8867036824
  H        13.0171213099        4.8602790055        4.2278856670
  C        14.2188781597        6.5885574291        4.9796071000
  H         7.6731510429        4.9041649401        4.8281975708
  H         8.0384049348        4.5776814871        3.2153189976
  C         6.8519712646        6.2383348079        3.3815341070
  C        11.8306219535        0.3748378647        1.0581394760
  C        11.6959594096        2.5450732460       -0.1138498579
  H        13.0756624953        2.2061247672       15.1288456203
  H        12.6324342266        0.6617251016       15.7735997070
  C        12.1495894856        2.3330015328       17.1543599304
  H         6.9795016392        9.2021802399       16.6959961470
  C         6.2785213704        7.6808630845       17.8249086034
  H        14.2116291281        7.3496112209        5.7108650368
  H        14.2341903245        7.1094766600        3.9937294278
  C        15.4321415800        5.7105253779        5.1037509101
  H         5.9216326327        5.7367783980        3.6995036205
  H         6.8025003298        7.1775333529        3.8670953030
  C         6.9680134276        6.3363519000        1.9023118087
  N        11.6716947545       -0.5264067067        2.1333662608
  C        12.1888450186       -0.2289183472       -0.1704104307
  C        12.1558582903        1.9745467243       -1.2745275959
  H        11.5686706994        3.6270808180       -0.2020615234
  H        13.1474534462        2.4855610256       17.6512526268
  H        11.5912481739        1.6473257852       17.8291417423
  H        11.6241243922        3.3171198945       17.1449997593
  S         5.7931945146        6.0932452138       18.1909857387
  C         6.2375414615        8.6457713126       18.9428388314
  H        15.1546504839        4.8555454543        5.6567247752
  H        15.6752516440        5.3096315973        4.1510504942
  C        16.6231420321        6.4847225617        5.7079829424
  H         7.2057249784        5.4279700595        1.4534011128
  H         7.7092105630        7.0162529987        1.6082887375
  C         5.6341492227        6.9123836141        1.3267881689
  S        11.9696162576       -2.0381629484        1.5926191826
  N        12.2138145303       -1.6081056143       -0.0092216324
  C        12.3163475805        0.5117689008       -1.3492923523
  H        12.2057224125        2.5812905640       -2.1517730156
  C         5.6229067881        6.7402118288       19.8840677302
  N         5.8664894728        8.0349498412       20.0558605592
  O         6.4984471300        9.8514251132       18.7536084240
  H        17.2586142484        7.0608303491        5.0942150695
  H        16.2348116702        7.2217030169        6.4007171647
  C        17.5417340654        5.5325275166        6.4532657539
  H         5.3484136012        6.5881604655        0.3374468615
  H         4.8169270647        6.6188158128        2.0006042236
  C         5.4732886326        8.3992389397        1.3493320941
  C        12.6884361004       -0.2182263895       -2.5178239770
  S         5.3959730071        5.7449532202       21.2599461641
  C         6.1135924769        8.6540918595       21.3835424831
  H        16.8718579492        4.8740296235        7.0550174197
  H        17.9719210740        4.8923299200        5.6697599479
  C        18.6421522145        5.9889852123        7.3247672358
  H         6.2330150360        9.0145056389        0.8173354981
  H         5.6718440912        8.7455785505        2.3543059899
  C         4.1459794822        8.8237919341        0.8018867606
  H        12.7311960552       -1.2921375199       -2.3665365232
  C        13.1576615213        0.2527582015       -3.7542958986
  H         5.4217253697        8.1806750245       22.0922553306
  H         5.6430278216        9.6605425064       21.3828344764
  C         7.5248026694        8.6094581069       21.9861825871
  H        18.7080497264        5.2418079093        8.1411387037
  H        18.5161084808        6.9465843442        7.7818161435
  C        19.8750006129        6.0863931675        6.4489284433
  H         3.9996642106        8.7172792229       -0.2766241508
  H         3.3916807855        8.2204762179        1.3219090791
  C         3.7945306633       10.2771177450        0.8136701969
  S        13.7337669467        1.8076101727       -4.0680248608
  C        13.3994314780       -0.7912911191       -4.8415452361
  H         8.2978865498        8.8047669387       21.2943353762
  H         7.6953497050        7.6539669602       22.4636824680
  H         7.6962566493        9.4429519700       22.6431411969
  H        19.7179317766        6.6085360887        5.5086043436
  H        20.6427061275        6.5765515045        6.9607501058
  H        20.2363443675        5.0945781411        6.1105383157
  H         2.9399331238       10.4927088828        0.1034283825
  H         3.4238323111       10.4564186836        1.8305164788
  H         4.6632948343       10.8336838464        0.6739643709
  C        14.2098961971        1.1664599659       -5.6299222457
  N        14.0508712462       -0.1759649701       -5.7978209734
  O        13.0898769926       -1.9948153659       -4.6823354525
  S        15.1141711251        2.1379644932       -6.8428890312
  C        14.3004447970       -0.8430513030       -7.0566106670
  H        14.7204954586       -1.8061572799       -6.7340233927
  H        15.0533936561       -0.3111812029       -7.6884394083
  C        13.0360843153       -1.2087813840       -7.8438160567
  H        12.1728092249       -0.7476781919       -7.3608927986
  H        12.8233860989       -2.3155702997       -7.7330184101
  H        13.2009020447       -0.9106305080       -8.8862575235
  H        -2.0522900941       13.0385785679       17.0959481854
  C        -2.5941376605       13.8830326227       16.7336371273
  H        -1.7555808311       14.4269121701       16.1519681098
  C        -2.9026042657       14.7653710095       17.9503712583
  C        -3.9277022147       13.4633078040       15.9722050492
  C        -3.3835549881       13.8528488375       19.1160536786
  H        -2.0469239531       15.3923468000       18.1773460994
  H        -3.6812985804       15.4986996572       17.6522574372
  H        -4.6462157706       12.9156949991       16.5991188865
  H        -4.4461622880       14.3442209311       15.7218794858
  H        -3.7309231019       12.9049889833       15.1063913713
  C        -2.3552037831       13.2375516891       20.0765810889
  H        -3.8915710748       12.9338162387       18.7442147574
  H        -4.1615106773       14.3528160791       19.7573531663
  C        -2.7748770404       13.3867715773       21.5270505098
  H        -2.3697335547       12.1478469065       19.7952850115
  H        -1.3262582222       13.5479112931       19.9130133428
  C        -1.7553261596       12.7596667228       22.4148068280
  H        -3.8321695301       13.1365072098       21.8260187706
  H        -2.7312216851       14.4365431241       21.8335786543
  C        -0.5702192384       13.6708730603       22.8382424495
  H        -2.1893468330       12.3125459332       23.3148329197
  H        -1.4346942053       11.9738902480       21.8493041155
  C         0.7059171145       12.9336669383       23.3692407259
  H        -0.2034695524       14.2796556622       22.0069052749
  H        -0.9339539582       14.3940016423       23.4926399872
  C         0.9043340550       11.6109201411       22.5910394645
  C         0.3073797228       12.1425840313       24.5984676499
  C         2.0294997765       13.6551328418       23.4731958929
  C         0.6851688538       10.4486910153       23.3754126965
  C         1.5345734163       11.2395134468       21.3402593518
  C         0.2401834495       10.7807384548       24.6498710527
  C        -0.1069258173       12.6882803560       25.8224728740
  H         2.0638816652       14.1690229701       22.4925906703
  H         1.9957619990       14.3676908396       24.3532030442
  C         3.3370852347       12.7796749407       23.6855085386
  S         1.2395315313        8.9659541428       22.6122446153
  C         1.6806546655        9.8716004289       21.2447347872
  H         1.7641771459       12.0034538016       20.5899289519
  C        -0.0920040296       10.1373257554       25.8575818112
  H        -0.1190084979       13.7487425985       25.8133229198
  C        -0.4478924470       12.0617354065       26.9825311930
  H         3.5718182203       12.1876769627       22.8460496749
  H         3.2920692802       12.0465777635       24.5247474537
  C         4.5796204296       13.5771360014       24.0563147378
  C         2.2642521020        9.2359256609       20.0602988496
  C        -0.4209756717       10.6804827428       27.0430096351
  H         0.0448117339        9.0619649695       25.7709626693
  C        -0.7775883881       12.4623625695       28.2387427781
  H         5.4160512179       12.9247643104       24.3833409817
  H         4.3021512633       14.2184820588       24.8819235165
  C         5.2605784036       14.3317872046       22.9595906875
  C         2.2555775296        7.8764804495       19.7348425594
  C         2.7380287912       10.1706899615       19.0143102178
  C        -0.8189926707       10.0230034552       28.3013303235
  C        -1.0330941494       11.3651886672       29.0147534766
  S        -1.0971246677       13.9192465360       28.9102878538
  H         5.9833305369       15.0823458282       23.2514565890
  H         4.5595624126       14.9966988590       22.5092803608
  C         6.1427291242       13.4297245328       22.0333441016
  N         1.6955206255        6.8120609619       20.4743958176
  C         2.5210067786        7.4387744348       18.4199876559
  C         3.1020603496        9.7171862629       17.7516462739
  H         2.9766643793       11.2173764699       19.2396821650
  C         0.3211549660        9.2039367752       28.9088592729
  C        -2.0563814654        9.1164154995       28.2622704626
  C        -1.4672048062       11.7618245213       30.3037436418
  C        -1.4918516821       13.0959855888       30.3799689368
  H         7.1005610910       13.9078815498       21.8617895059
  H         6.3098660423       12.4344514056       22.4645971628
  C         5.4862670308       13.2860501710       20.6210622915
  S         1.8803305714        5.4277090665       19.6784514653
  N         2.4728170351        6.0471623294       18.3220176295
  C         2.9385663848        8.2954957303       17.4037193535
  H         3.3631575404       10.4702508222       16.9779200935
  H         0.5267619492        8.3445558783       28.2012080257
  H        -0.0071613612        8.7168956771       29.8035900958
  C         1.6151258427       10.0113007891       29.2622320002
  H        -1.9756242658        8.2238017869       27.6862670580
  H        -2.3720793073        8.8983066127       29.2349269246
  C        -3.2618926804        9.8979836841       27.7031999073
  H        -1.7070159116       10.9984272863       31.0170259606
  C        -1.8699824170       13.8448286591       31.6428487939
  H         4.9535686939       14.2150380685       20.3534488833
  H         4.7525098163       12.4735370827       20.6496143773
  C         6.4528025673       13.0403749150       19.5385386800
  C         3.0635543844        7.6986738787       16.1344908704
  H         1.7857900582       10.7164391179       28.4169610543
  H         1.5075448909       10.6095596984       30.1548167967
  C         2.8391847984        9.0475605329       29.4549978409
  H        -3.0294553231       10.2308137304       26.6857917647
  H        -3.5040045029       10.8686416602       28.2609371369
  C        -4.5697530103        9.1439518228       27.9069557172
  C        -1.9768781931       15.2721020321       31.7631620469
  C        -2.2946213948       13.1064524760       32.8604918916
  H         7.0734611748       13.9776361861       19.4377529516
  H         7.0803012880       12.2264082500       19.7844758833
  C         5.6328789628       12.9252250626       18.2798417530
  H         2.7840936594        6.6784022659       16.0189474357
  C         3.3766401166        8.1271553027       14.8610236532
  H         3.1400277914        8.5097295143       28.5034500274
  H         2.5590531332        8.2632100083       30.2093654826
  C         4.0964445947        9.7173940302       30.0308155870
  H        -4.7143953672        8.2181433575       27.4699096291
  H        -4.9028225834        9.0436188145       28.9290495253
  C        -5.7245276282        9.9009633617       27.3228473851
  N        -1.7603964850       16.1150591843       30.6826047651
  C        -2.3014060295       15.8913101655       32.9119386816
  C        -2.5502867691       13.7142726919       34.0843212389
  H        -2.4092675219       11.9977757837       32.8113744343
  H         6.1994892089       12.5328652412       17.5050523065
  H         4.8881588251       12.1861904622       18.6589912118
  H         5.1576085326       13.8738885657       17.9904727675
  S         3.9977962918        9.7041498082       14.4088275550
  C         3.3586895789        7.1708356711       13.7358818106
  H         4.1492170717       10.6542304431       29.4888919964
  H         4.0007630091       10.0542894792       31.1166326212
  C         5.4432887575        9.1485199337       29.7828342906
  H        -5.8034965719       10.9064115789       27.6859964507
  H        -6.6143942189        9.3465429013       27.6023349418
  C        -5.7856195839        9.9194340832       25.8059528167
  S        -2.1024853409       17.6355106074       31.1530114146
  N        -2.3982314217       17.2706312973       32.7361565225
  C        -2.4895545336       15.2092525075       34.0868257094
  H        -2.6250566679       13.1435623653       35.0020555553
  C         4.0803157277        9.0892033384       12.7565893115
  N         3.7829658346        7.7412403738       12.5855627788
  O         2.9889721663        5.9800576827       13.7760397709
  H         6.0803371932        9.6692637131       30.5273061468
  H         5.7222890658        9.3551738228       28.7268567817
  C         5.3867679988        7.6844777506       30.1612800448
  H        -4.8378944026       10.2691243426       25.4340271503
  H        -6.0087780384        8.9320263543       25.4214543439
  C        -6.8731896512       10.8520928345       25.2050156558
  C        -2.7417551439       16.0060823822       35.2698636629
  S         4.7550364356        9.9943672915       11.3083602013
  C         3.8100510942        7.0234940276       11.3576252836
  H         4.9178481280        7.4893604943       31.1444656570
  H         4.7859172701        7.2245061899       29.3612515935
  C         6.7250382822        6.9226596710       30.0220679969
  H        -6.7240129053       10.9527835265       24.1116664120
  H        -6.8792817765       11.8660414872       25.6355195835
  C        -8.2418395134       10.1738435843       25.2335094340
  H        -2.4859356914       17.0340275660       35.2080174771
  C        -3.3686586864       15.6079104378       36.4659796460
  H         4.6528167100        7.4750992012       10.8383675465
  H         4.0510162910        6.0232217074       11.7690865180
  C         2.4630529264        7.1189425127       10.7117145325
  H         7.6727630184        7.5403235936       30.1633817398
  H         6.8272511205        6.6355976954       28.9575530266
  C         6.6380013300        5.6287765211       30.8925308277
  H        -8.7542410709       10.6291523021       24.3570600743
  H        -8.2759256805        9.0668708018       25.0571450208
  C        -9.0849068871       10.5626132695       26.5107322802
  S        -4.0667463425       14.1252115691       36.9073929402
  C        -3.4290053316       16.6402804242       37.5364822714
  H         1.7696327126        6.4926811137       11.3723423760
  H         2.0078208244        8.1076786643       10.7973698739
  H         2.4175287642        6.7231990151        9.7043714790
  H         7.5201011520        4.9396283464       30.8187472634
  H         5.7977961912        5.0827488564       30.4586826290
  H         6.3860874148        5.7885235670       31.9512071529
  H        -9.1460377721       11.6033519784       26.6325784949
  H        -8.7418840897       10.2266249996       27.5411660554
  H       -10.1398620652       10.2624140777       26.4092128058
  C        -4.4219400131       14.8680689738       38.4591663727
  N        -3.9370008650       16.1146661978       38.6423482473
  O        -2.6933657394       17.6426671555       37.5496198881
  S        -5.1785465319       14.1065266245       39.8969644964
  C        -3.9602456400       16.9458099304       39.8506453979
  H        -4.0276450760       18.0362787605       39.5852732798
  H        -4.6300956446       16.6177318572       40.6699993342
  C        -2.5851487827       16.8656580030       40.5347357546
  H        -1.7457037171       16.5016854326       39.9447125240
  H        -2.2011388553       17.8069136958       40.8418630897
  H        -2.6408920529       16.1858267061       41.3645314984
