352
i=
  H         4.2368441871        1.5966331552       12.4035677353
  C         3.9078617545        2.5943182481       12.6178273591
  H         4.8890229546        3.1632199988       12.6312594366
  C         3.0444031883        3.1364009960       11.5539227704
  C         3.1866647043        2.6575570446       13.9443429909
  C         3.9334067313        3.3776415649       10.2662314471
  H         2.6807844299        4.1150432630       11.8510608606
  H         2.0722485949        2.5965928263       11.3364716884
  H         3.7489001080        2.3886730808       14.8195811086
  H         2.3809124296        2.0371722252       13.9552705638
  H         2.6562307835        3.4839649480       14.3080751910
  C         4.5737565457        2.0733280730        9.7261510626
  H         3.1914395584        3.7388406608        9.5267423359
  H         4.7523322992        4.0632546910       10.3017615415
  C         5.1485110427        2.2428325480        8.3440000471
  H         3.7548685043        1.4285802296        9.5066048492
  H         5.3469750144        1.5851279938       10.3230668612
  C         6.4354284432        2.9773555725        8.2332849327
  H         4.3872332301        2.7593853443        7.7513037375
  H         5.1005893852        1.3139752439        7.8369133790
  C         7.6857235467        2.3521423195        8.9265084329
  H         6.6945589066        3.2051116267        7.1548330315
  H         6.3113543801        3.9773400116        8.7486296472
  C         8.9748815267        3.2188062240        9.1464037188
  H         7.9338319071        1.4759932784        8.3493898644
  H         7.3959546618        1.9704775468        9.9134174203
  C         8.5695224427        4.5442554258        9.6993665002
  C         9.3591720524        3.8514055693        7.8227013182
  C        10.1958896420        2.5740838362        9.8712733757
  C         8.9077828974        5.6331014277        8.9394990784
  C         8.0539516145        4.9285132235       10.9398516249
  C         9.3689441134        5.1502621447        7.6850787049
  C         9.6227575515        3.1580754181        6.6002379892
  H         9.8604315529        1.9836626465       10.6974156525
  H        10.6664340739        1.9653727901        9.1748743431
  C        11.3884239457        3.4789039462       10.3261787519
  S         8.5982284276        7.2301513735        9.6634779146
  C         8.0528180752        6.3136018830       11.0978443457
  H         7.5704377813        4.1793535863       11.5821200525
  C         9.6782356525        5.7434757945        6.5015135994
  H         9.5031662021        2.0888517435        6.6108539874
  C         9.9920093412        3.7200551522        5.4116200317
  H        11.0179746218        4.4061000916       10.7654507482
  H        12.0174870574        3.6377040381        9.4868937785
  C        12.1764179633        2.7482715429       11.3510558025
  C         7.6021987676        6.9619161237       12.3645427903
  C        10.0529678059        5.0995686195        5.3118727439
  H         9.8194922989        6.8559268506        6.5760488731
  C        10.4330639660        3.2442933037        4.1815695776
  H        13.1420704992        3.2513613172       11.4563010499
  H        12.4255748295        1.7663012455       11.0720243944
  C        11.4166276861        2.5636509298       12.7304937046
  C         7.6600340477        8.3125973418       12.7153192572
  C         7.0457754405        6.1675758021       13.4389308529
  C        10.4274380819        5.7803846274        4.0192005242
  C        10.6226890343        4.3383097864        3.3484768449
  S        10.6210616313        1.7141083869        3.5088837179
  H        11.0167653238        3.5778357741       12.9861470359
  H        10.6865488358        1.8195051065       12.7193572081
  C        12.4420054033        2.1636856214       13.7827354775
  N         8.0804568004        9.3096338435       11.8415884291
  C         7.3362482530        8.7912123718       13.9610658845
  C         6.6258288732        6.6173833388       14.7054088525
  H         7.0267617933        5.1106638986       13.3197492400
  C        11.7585477587        6.5727701909        4.0687309273
  C         9.2793536278        6.5810381498        3.3296031776
  C        11.0149523627        3.8788440741        2.1123395593
  C        11.0076268756        2.4577970870        2.0048635766
  H        13.4300126637        2.5594876652       13.5521872613
  H        12.4965428962        1.0647273911       13.8988109997
  C        12.0092578749        2.7395690100       15.1132994089
  S         8.0929896248       10.7602795257       12.5820657258
  N         7.4856996887       10.1650007271       14.0022642933
  C         6.8499259897        8.0139327678       15.0568331379
  H         6.2639634213        5.9120547082       15.4355803381
  H        11.5233221916        7.4902822154        4.6939656838
  H        11.9525351183        6.9112926011        3.1383000341
  C        12.9279649751        5.7016199783        4.5574145164
  H         9.0513133057        7.3385809453        4.1487589049
  H         9.4255015767        7.2061155527        2.4034971555
  C         8.0908787461        5.6574722839        2.9306169869
  H        11.3221491419        4.6374209526        1.4579826420
  C        11.3618294245        1.6280289610        0.8278234942
  H        11.9764650706        3.8177509031       15.0129875697
  H        11.0002332079        2.5200957532       15.5173116981
  C        13.0958557948        2.4014780678       16.2417657998
  C         6.6121086500        8.6253069567       16.2983165843
  H        12.5497559905        5.1315999116        5.4320877970
  H        13.2226346456        5.0656521670        3.7055986686
  C        14.0389930725        6.5507479902        5.1127268684
  H         7.8011450830        5.0724068294        3.8652487849
  H         8.3095095201        4.9695289885        2.0890481114
  C         6.9201831840        6.4868200182        2.4423231033
  C        11.4883622052        0.2389281417        0.7200472158
  C        11.7001627355        2.3606940142       -0.4293817397
  H        14.0073833276        2.8720330076       15.8691657809
  H        13.3098253574        1.3644792071       16.3196822031
  C        12.8187415860        2.8658028486       17.6029997747
  H         6.5551433812        9.6808995522       16.2831081185
  C         6.3576269096        8.0886118524       17.5348422392
  H        13.7044665137        7.3488583453        5.7262722872
  H        14.6331465024        7.0458323601        4.4098509663
  C        14.9974186686        5.7045897448        6.0050679341
  H         6.7920393567        7.3820512006        3.0469991208
  H         7.1524662854        6.9733846434        1.4676163932
  C         5.5016375410        5.8100226275        2.3912801705
  N        11.3525009819       -0.6556541180        1.7631836315
  C        11.8636473432       -0.3714741765       -0.4640823622
  C        12.0462259247        1.6885568769       -1.5662034215
  H        11.5230921810        3.4638095199       -0.4814764477
  H        12.3654673865        3.9041731914       17.5707167217
  H        13.5763350317        2.7862531463       18.3679482186
  H        12.1046717064        2.1894613925       18.0339654565
  S         6.1537853760        6.4043254937       17.9430909824
  C         6.3085023745        9.0395499878       18.6581236912
  H        14.5692114385        5.6127254642        7.0204770630
  H        15.0550060487        4.7363651970        5.6857644440
  C        16.4099956376        6.3550696126        6.0588114146
  H         5.2400247216        5.6679151984        3.4409803615
  H         5.6410952615        4.8712964691        1.8488355509
  C         4.4217611310        6.6817259580        1.7126569649
  S        11.4401512141       -2.1219411871        1.1248780402
  N        11.9627357571       -1.7584421585       -0.3599656581
  C        12.0742890870        0.2244491775       -1.7103986255
  H        12.2668016919        2.3256010613       -2.3866111277
  C         6.1444164149        6.9944479641       19.6445674877
  N         6.1168832036        8.3598833986       19.8011246334
  O         6.5634562622       10.2371995301       18.5486607866
  H        16.9412318647        6.1210463919        5.1358401734
  H        16.2754760008        7.4748724003        6.2073330009
  C        17.4529435698        5.7472324840        7.0837430218
  H         4.7753146165        6.7632284714        0.6927034632
  H         3.4908917218        6.1308046084        1.6330496639
  C         4.2126127739        8.0969981444        2.3747163887
  C        12.4741743215       -0.5318214123       -2.8008846997
  S         5.4939986812        6.1246738743       20.9728755557
  C         6.1046006801        9.1237850525       21.0737945470
  H        17.3834646571        6.2890760420        8.0180177237
  H        17.3964740600        4.6745255303        7.2856743588
  C        18.9078387962        5.9191864614        6.6732800000
  H         5.1109883552        8.7629041759        2.2913904880
  H         4.1880736162        7.9505908040        3.4794437865
  C         3.0009853477        8.8859508069        1.8196297141
  H        12.4557452122       -1.5747645083       -2.7712192147
  C        12.9335009843       -0.1068496523       -4.0688244850
  H         5.4258332109        8.7310757716       21.8529657812
  H         5.7483021167       10.0983952821       20.9072171600
  C         7.5623183396        9.2567657044       21.5345986600
  H        19.5191605667        6.0857078129        7.4792731920
  H        18.9904350549        6.8435826940        6.0186986192
  C        19.3748417805        4.7635632397        5.8652633927
  H         2.2953052417        8.1119607113        1.6100379867
  H         2.5934072962        9.7028800606        2.5053044738
  C         3.4850029875        9.4594052917        0.4666302489
  S        13.2638508557        1.4905582798       -4.5596832318
  C        13.0945062279       -1.1310458138       -5.1808599987
  H         8.1910157990        9.7764133090       20.8352794566
  H         8.0475094718        8.3205474589       21.9790909793
  H         7.4984049278       10.0168196780       22.3562931386
  H        20.4367016840        4.6880222705        5.8894659922
  H        18.9444881842        3.8200086628        6.0498822260
  H        19.0648225987        5.0320445751        4.8103988611
  H         4.0113741537       10.4277711840        0.4191126649
  H         4.0899609158        8.7602905300       -0.0278670672
  H         2.6132952008        9.5088784973       -0.1394135014
  C        13.6574397014        0.8657356982       -6.1835090350
  N        13.5491934606       -0.4877774528       -6.2750354986
  O        12.8420955445       -2.3685704484       -5.0258291290
  S        14.2332686882        1.8350366236       -7.5821923217
  C        13.7682822802       -1.2974167846       -7.4960063827
  H        14.0050776397       -2.3400213747       -7.3374778669
  H        14.5332742430       -0.9894489287       -8.0981909860
  C        12.5033539869       -1.2215392650       -8.4390591313
  H        12.4610006121       -0.2958563438       -9.0373943647
  H        11.5328345321       -1.2959562000       -8.0123643461
  H        12.4496514974       -2.1990374816       -8.9995155367
  H        -4.1023319189       13.4303732461       16.2368218182
  C        -3.0734407027       13.7435629852       16.4904390082
  H        -2.4728630985       12.9634143024       16.7776877874
  C        -3.1001503208       14.7747228722       17.5901133992
  C        -2.4477247710       14.4179125626       15.2190798768
  C        -3.3174828291       14.1666292241       18.9651365994
  H        -2.1598506374       15.3289288716       17.4489075613
  H        -3.9207577184       15.4739229764       17.5887717649
  H        -2.6950579466       13.7337589385       14.3638908279
  H        -2.9017300019       15.3733537666       15.0651134453
  H        -1.3327344551       14.5485359526       15.0792249824
  C        -1.9983672802       13.8340134421       19.7115142375
  H        -3.9934896150       13.3558245202       18.9898298167
  H        -3.8797442125       14.8771736896       19.5424599444
  C        -2.0752413771       13.7318201180       21.2497403923
  H        -1.4702271668       13.0126095881       19.2180738796
  H        -1.2592488936       14.6371632059       19.6301126121
  C        -0.9800624823       12.8826835288       21.9022869390
  H        -3.0200296722       13.1330967299       21.3705598903
  H        -2.2663940213       14.6617285157       21.7473728114
  C         0.1535312002       13.8096403107       22.4426852452
  H        -1.3546585200       12.2396294826       22.6587169944
  H        -0.6095200716       12.1640706176       21.1626962013
  C         1.3410591213       13.1885247107       23.2789312806
  H         0.4603445195       14.4037309090       21.6660559991
  H        -0.2404374309       14.5740369884       23.1248151087
  C         1.6561247012       11.8867521419       22.6484245922
  C         0.7111631060       12.5446997924       24.4463898297
  C         2.6010487587       14.0639519843       23.4525320777
  C         1.2869880618       10.7487838811       23.3821040366
  C         2.1747842386       11.4966544187       21.4421496661
  C         0.7132286857       11.2027572112       24.5452635785
  C         0.3087798623       13.2053392443       25.6126372273
  H         2.8440242266       14.6196061143       22.5798990824
  H         2.4039578808       14.8425807662       24.2065878519
  C         3.9560462908       13.3900245898       23.7545623755
  S         1.6453543108        9.2465798891       22.6527259120
  C         2.1692773186       10.1175982666       21.2972744159
  H         2.5109345978       12.2427953084       20.7673226943
  C         0.2121089320       10.5910991099       25.6247559284
  H         0.4204481733       14.2395115046       25.5826201726
  C        -0.0796456551       12.5706524956       26.7545088506
  H         3.9461984987       12.6176818809       23.0213782737
  H         3.8647784851       12.9092535296       24.6598026612
  C         5.1958387468       14.3183313608       23.7101140434
  C         2.5062695955        9.4352828176       19.9738048329
  C        -0.2052439339       11.2099691351       26.7943285836
  H         0.2527351313        9.4806573844       25.6589434865
  C        -0.5551267484       12.9372603090       27.9694890126
  H         5.8980430450       13.8877652024       24.3649201926
  H         4.9354638482       15.2352935270       24.2456576026
  C         5.9324817368       14.6656492222       22.3714145539
  C         2.4935892670        8.0394031627       19.7258133395
  C         2.6957771407       10.3247184298       18.8350255009
  C        -0.5202440516       10.4656463736       28.0380085696
  C        -0.7463845285       11.8630546025       28.8002228437
  S        -0.8740261952       14.4066856521       28.7222396551
  H         6.3215973445       15.7159040184       22.3718110252
  H         5.1232181103       14.7356215245       21.5799437689
  C         6.8960533103       13.6288452123       21.8708779453
  N         2.2054878764        7.1211569611       20.7643944590
  C         2.8329800195        7.5177413878       18.5185851578
  C         2.9852286196        9.7808218366       17.5799955114
  H         2.6328427173       11.3382690493       18.9209796034
  C         0.6767413253        9.6697462141       28.6126349196
  C        -1.8449353448        9.6381406289       27.9287932434
  C        -1.1803551957       12.2613294527       30.0877189192
  C        -1.2326135670       13.6409438517       30.1994052492
  H         7.6572063043       14.2943577962       21.5374984845
  H         7.2036325335       12.9508047043       22.6616333302
  C         6.3389783673       12.7544349521       20.7440401332
  S         2.4668050153        5.6502504263       20.0627141619
  N         2.8096801678        6.1203261725       18.5465533949
  C         3.1447986418        8.3452008404       17.3550513559
  H         3.0939105794       10.4733582058       16.7305619061
  H         1.1645745087        9.0890671573       27.8091926495
  H         0.2719358888        8.9155657058       29.3186184839
  C         1.8566593365       10.4645403297       29.2488402349
  H        -1.7582350880        8.7971258563       27.3266796533
  H        -2.1307890482        9.1451543063       28.8920807914
  C        -3.0756418583       10.4426301022       27.3307399697
  H        -1.3083930524       11.5724756637       30.8300908900
  C        -1.5748322598       14.3937825398       31.4582472244
  H         5.4572808455       12.2656461036       20.9981480568
  H         7.0312674793       11.9550480954       20.6140331647
  C         6.1448113843       13.5030186871       19.3574169001
  C         3.3120963800        7.6972365572       16.0889635393
  H         2.2829687770       11.0462426806       28.4608179655
  H         1.5952752715       11.1655030115       30.0073122013
  C         2.7655859042        9.5222068286       29.9365480731
  H        -2.8103346347       10.6068661692       26.3155846134
  H        -3.1009322872       11.3302753810       27.9103585699
  C        -4.3698602010        9.6162190262       27.5131634680
  C        -1.6169469089       15.8160508116       31.5352542750
  C        -1.7954800831       13.6604253289       32.7395904573
  H         5.7010487093       12.7352499872       18.7142800551
  H         5.4006159907       14.2450962068       19.3735592318
  C         7.4366409574       13.9139587113       18.7272632046
  H         3.2931551085        6.6274714408       16.1284220917
  C         3.6637765410        8.1476587042       14.8490613260
  H         3.1547000394        8.8738633465       29.1662466716
  H         2.2589156821        8.8549739325       30.6627881523
  C         3.8984159089       10.1887883018       30.7799332821
  H        -4.4301889368        8.7231763374       26.9319700235
  H        -4.4435461383        9.3436945949       28.5723150033
  C        -5.6346664471       10.3746594386       27.0476046695
  N        -1.2665473531       16.7270389657       30.5032426930
  C        -1.8126088466       16.5421455690       32.7446781203
  C        -2.0810079656       14.3773544763       33.8949314802
  H        -1.8357093169       12.5447049358       32.8231108753
  H         7.2919169588       14.6725778023       18.0040831529
  H         8.0672883539       14.3911275239       19.5017697643
  H         7.9335807102       13.0099173998       18.3295498310
  S         3.8536574909        9.7799471493       14.3663620986
  C         3.6158030666        7.1585684068       13.6823510163
  H         4.0467938295       11.2557362793       30.5029939172
  H         3.5207230963       10.1315902765       31.7791009983
  C         5.1268836815        9.3572496007       30.7209754181
  H        -5.5111514864       11.4078369935       27.1098598574
  H        -6.4215112542       10.1598844793       27.7497566509
  C        -6.1261143146       10.0768976325       25.6506166732
  S        -1.2216527658       18.2472723580       31.1114241315
  N        -1.5932463087       17.9153922559       32.6140251580
  C        -2.1960213022       15.8759712440       33.9408208261
  H        -2.2728563399       13.8618819410       34.7866641992
  C         4.0609956031        9.1510748318       12.7763180861
  N         3.9788912790        7.8152970355       12.5974591569
  O         3.4219639258        5.9641053527       13.8283214990
  H         5.9653084499        9.9344012654       31.1660369653
  H         5.3403273508        8.9691730938       29.6864483675
  C         4.9675588116        8.1651518908       31.6565029803
  H        -5.3272093093       10.4996998526       24.9783120990
  H        -6.1970582023        8.9970796399       25.4681216585
  C        -7.4540837673       10.6950652323       25.3289810271
  C        -2.4422299195       16.5905856271       35.1603259315
  S         4.6113152052       10.2168971510       11.4966632135
  C         4.0976699565        7.1089058606       11.2807831070
  H         5.6689977858        8.3252260057       32.4827144527
  H         3.8993989556        8.1468526900       32.1049873348
  C         5.4055282412        6.7942537460       30.9895469448
  H        -7.4365014907       10.9301647552       24.3061106948
  H        -7.5896143372       11.6712680985       25.8580552079
  C        -8.6769782237        9.7879212893       25.6035941108
  H        -2.1850302069       17.6564521551       35.0196950571
  C        -3.0316954619       16.2778810172       36.3525467719
  H         4.9583498947        7.3806080488       10.7583520760
  H         4.3266126615        6.1328467976       11.5543521860
  C         2.8542352065        7.3297583498       10.4244392343
  H         6.2934526185        6.9787283442       30.4512946407
  H         4.6247759629        6.5627089490       30.2414650812
  C         5.4493761339        5.7001039885       32.0643963511
  H        -8.9363236889        9.2985105805       24.6859209063
  H        -8.4018364287        8.9828035251       26.2561320610
  C        -9.8158270854       10.5134138919       26.2217186027
  S        -3.6176565559       14.7575897238       36.9527498663
  C        -3.1131120515       17.4378156822       37.3047343318
  H         3.0858756616        8.2925690356        9.9592654346
  H         2.7374879687        6.5391716266        9.6123026172
  H         1.9580527744        7.4171506398       11.0425694136
  H         6.4189739477        5.1782607092       31.9561435959
  H         4.8621408738        4.8211006253       31.8375202307
  H         5.4218864931        6.0600051864       33.1070523975
  H       -10.4211110456       11.0047255600       25.5254114658
  H        -9.6279354205       11.2519053515       26.9776793863
  H       -10.4971480121        9.7803569413       26.6796350209
  C        -3.9677981931       15.6904081489       38.3930920566
  N        -3.6955206560       16.9993330651       38.3494589727
  O        -2.6755955796       18.5487966733       37.1299571059
  S        -4.5674365147       14.9976068938       39.8491260644
  C        -3.7651461563       17.9566952374       39.4918678028
  H        -4.0950709313       18.9002085719       39.0182385415
  H        -4.5274658226       17.6186253880       40.2113900994
  C        -2.3956893024       18.0550827534       40.2064772633
  H        -2.3888151474       19.0329634806       40.7257092546
  H        -2.3624603205       17.3009409024       40.9334661909
  H        -1.5250750946       17.8725829530       39.5468572920
