352
i=
  H         2.2100846132        1.0554883554       13.0575893595
  C         3.1688410926        1.6110014342       12.8152982470
  H         4.0151469006        0.8991355504       12.9312483719
  C         3.1123534844        2.1146944609       11.3080239239
  C         3.3611401590        2.7567153627       13.8458511942
  C         4.3954789852        2.5742012656       10.6167772764
  H         2.3372981877        2.8245475561       11.1432176691
  H         2.7086906616        1.2779921935       10.8064352586
  H         4.4177303636        3.1468514214       13.9735067152
  H         3.0364960370        2.4871787578       14.8768259878
  H         2.7366576759        3.5915979789       13.5708575501
  C         5.3570967112        1.3875972435       10.2326809501
  H         3.9990896593        3.1455042946        9.7383936342
  H         4.9640701469        3.4224996182       11.1175460500
  C         5.8361163308        1.5629676687        8.7907012532
  H         4.8835763449        0.3893325720       10.3623764942
  H         6.1994318019        1.4926566566       10.9199122618
  C         6.9148388087        2.6040020083        8.7530807723
  H         4.9561148216        1.8276234157        8.1801760421
  H         6.1697191490        0.6159620548        8.3409542645
  C         8.3059199774        2.0206293884        9.0434748048
  H         6.9495742946        2.9683851298        7.6678631396
  H         6.5632940391        3.4572540037        9.3697590317
  C         9.4717788224        2.9758075425        9.2322435878
  H         8.4602204896        1.3499040650        8.1815547826
  H         8.3457454302        1.3215822604        9.9047067421
  C         9.0375120803        4.2461549710        9.8575737386
  C         9.8764712499        3.6763663913        7.9895540349
  C        10.5475814431        2.3521847619       10.0085898254
  C         9.0705956590        5.3540440023        9.0412117968
  C         8.4328789156        4.5198183570       11.0922681211
  C         9.6896348020        5.0200705495        7.8209205875
  C        10.4131463358        3.0675823113        6.8304266953
  H        10.1656257761        1.8938091193       10.8853747866
  H        11.0059468245        1.6447089063        9.3845310905
  C        11.6745123840        3.2850464796       10.4912189175
  S         8.5790134343        6.8104842620        9.8458852494
  C         8.2434923964        5.8469346510       11.2549525167
  H         8.4221222491        3.8348176982       11.8915468976
  C        10.0400995019        5.6417656717        6.6618167717
  H        10.5402338632        1.9799637787        6.9246775027
  C        10.6825884700        3.6195582228        5.6307862729
  H        11.1790123469        3.8966151574       11.1859402175
  H        12.1692202390        3.7750012540        9.5818092985
  C        12.7553132759        2.4669396629       11.2745091745
  C         7.8260510360        6.5707059632       12.5454705656
  C        10.5353496748        4.9732779318        5.5231375152
  H         9.9325867950        6.7484147595        6.5377359838
  C        11.0191910855        3.2268770666        4.3723773484
  H        13.6744279818        2.9342676081       11.4060382342
  H        12.9253365296        1.4642842790       10.8212754407
  C        12.2496698329        2.1939817474       12.6753107638
  C         7.8940923920        7.9881811297       12.7217290286
  C         7.2170778947        5.7600409207       13.5970915530
  C        10.9377814699        5.6634456250        4.2854158291
  C        11.1651780446        4.3109244020        3.5222978887
  S        11.2772681665        1.7050838458        3.6421085940
  H        11.8321098360        2.9836601631       13.2376290693
  H        11.4706832365        1.4481854160       12.5764659794
  C        13.4448386676        1.8041259333       13.5568807067
  N         8.4007309507        8.9373204846       11.8484108967
  C         7.4621739651        8.5347471801       13.9555861811
  C         6.7474058978        6.3209550294       14.8017124889
  H         7.0857095252        4.6864008151       13.5983246961
  C        12.2847501568        6.3783055184        4.5601783763
  C         9.8926936777        6.5344262287        3.5282331174
  C        11.4256618655        3.8895975495        2.2141897838
  C        11.5364793437        2.5518302823        2.1372811189
  H        14.0421622173        2.6564533463       13.9375558290
  H        14.1821882667        1.2157357838       12.9774360872
  C        13.0713778345        1.0611564991       14.7893019333
  S         8.2506635669       10.3323874965       12.6255167770
  N         7.4826559318        9.8803123920       13.9837439677
  C         6.9564094287        7.7799565817       15.0400711221
  H         6.3550609448        5.6624909310       15.5607313899
  H        12.1731374040        7.0132546980        5.4780200710
  H        12.5682685554        7.0391830182        3.6329300420
  C        13.4729827426        5.5511773925        4.9765064845
  H         9.7535780235        7.4426926718        4.1726667421
  H        10.3131151910        6.9216042920        2.6253444965
  C         8.6332906212        5.7542736373        3.0311147067
  H        11.5170922415        4.6251020461        1.4464125709
  C        11.8919998000        1.8159003509        0.9010925116
  H        12.1611065376        0.5487336346       14.6600542952
  H        13.8092095103        0.3410951995       15.0647424766
  C        13.1021775328        2.0031569238       15.9434115516
  C         6.8459083825        8.4459236482       16.3379513995
  H        13.2384667072        4.9053551985        5.8013027234
  H        13.7368649265        4.8327123544        4.1612052112
  C        14.6185144264        6.4774456234        5.3817232241
  H         8.2211929214        5.1592716374        3.8940804488
  H         8.7122952395        5.0083844249        2.1981893458
  C         7.4880849911        6.6794491686        2.6082035980
  C        11.9706404131        0.4187362843        0.7001596442
  C        12.0113396325        2.5847126395       -0.3494283134
  H        12.6344235858        2.9680848589       15.5556704426
  H        14.1449944656        2.1959218644       16.1976393493
  C        12.2011673282        1.6565521554       17.1143756461
  H         6.9589875465        9.5461595242       16.2981067784
  C         6.5766125560        8.0415283546       17.5926574344
  H        14.4054032106        6.9257658920        6.3437048881
  H        14.7714436137        7.2447497824        4.6630230874
  C        15.9362329494        5.7019901899        5.4693839840
  H         7.3818985337        7.4200450353        3.4097775696
  H         7.7021889424        7.2630470944        1.6631484355
  C         6.1766302837        5.8637301878        2.3752933411
  N        11.8505126454       -0.5370063134        1.7040896129
  C        12.2239490881       -0.1345874590       -0.4984092915
  C        12.3853802999        2.0281299172       -1.5839323645
  H        11.7497773832        3.5637758787       -0.4129011280
  H        12.4781914805        0.6950913011       17.5872741047
  H        11.1927639104        1.5331177625       16.6740519405
  H        11.9862297283        2.3907863638       17.8889001556
  S         6.2990022249        6.4292313764       18.0755002018
  C         6.3855077204        9.1443099419       18.6525626445
  H        15.7148911625        4.6623005230        5.5013901080
  H        16.5934681211        5.8394218417        4.6066569126
  C        16.7608590803        6.0390470735        6.6819081282
  H         6.1794091278        5.1095985187        3.1675646498
  H         6.2750216981        5.4035007676        1.3282921997
  C         4.8668371727        6.5643564382        2.4361991752
  S        11.9015289581       -2.0387522160        1.1059623554
  N        12.1191517848       -1.5742682003       -0.4087871298
  C        12.4600515147        0.5471253735       -1.6560715639
  H        12.3436385532        2.6536453718       -2.4740689778
  C         5.9226106021        7.1804407576       19.7187937639
  N         6.0320011136        8.5660977438       19.7929650002
  O         6.3559115518       10.3498303051       18.3976850354
  H        17.2406629856        6.9872932978        6.5005391795
  H        16.0440643492        6.2863789458        7.5615672380
  C        17.8020388979        4.9412772494        7.0629769793
  H         3.9411402735        5.9922235334        2.6505148182
  H         4.8581956802        7.2620559717        3.3145736097
  C         4.7267856697        7.3665378044        1.1645123524
  C        12.5847220588       -0.1240964199       -2.9116549857
  S         5.5900272918        6.2290102433       21.1765444633
  C         6.2284693164        9.3328853013       21.0361288723
  H        17.1143053774        4.3759120620        7.6852046008
  H        18.0799500436        4.5144762510        6.1560578519
  C        18.9962879705        5.5283969609        7.8172221125
  H         4.7389681785        6.7045046908        0.2839944917
  H         5.5839025061        7.9643282668        1.0322298612
  C         3.4953018239        8.3374869010        1.1296470947
  H        12.1436566998       -1.0557257898       -2.9388489552
  C        13.1401040919        0.2335386526       -4.1063810780
  H         5.7561959250        9.0010738560       21.9538547188
  H         5.8518716495       10.4166719298       20.9202567550
  C         7.6341802010        9.3544579782       21.5183913768
  H        19.3546583145        5.0012328666        8.6527299107
  H        18.7087587692        6.5679964301        8.1776254427
  C        20.1661503016        5.6763616040        6.7414658658
  H         3.3203648816        8.7102876380        0.0778781562
  H         2.5289209285        7.8289984857        1.5493259145
  C         3.7478404290        9.6776601907        1.8687468235
  S        13.9317938832        1.7080473185       -4.4095308194
  C        13.3490065831       -0.8070507135       -5.1090194764
  H         7.6767515205        9.6205278630       22.5206501933
  H         8.2454437334       10.0252246887       20.9279641807
  H         8.1279515178        8.3939045078       21.3357404103
  H        19.7298051980        6.0604349850        5.8547903692
  H        20.9090746556        6.4709207753        7.0321116549
  H        20.6722362939        4.7027026890        6.5734348246
  H         4.7480112310        9.8264919072        2.2194434063
  H         3.5351446120       10.5289432522        1.1611355313
  H         3.0721433624        9.8658832648        2.7049266936
  C        14.3053400866        1.0544784692       -6.0218358606
  N        14.0198694663       -0.2632477467       -6.1199506796
  O        12.9885143347       -1.9850244827       -4.9747378059
  S        15.3524007315        1.9161866810       -7.1973515256
  C        14.4255456091       -1.0272014787       -7.2847303067
  H        14.6538612984       -2.0388347191       -7.0895400316
  H        15.4482577733       -0.6613262527       -7.4699280747
  C        13.3202379796       -0.9858058530       -8.3235118999
  H        12.3732906377       -0.5981014286       -8.1984101934
  H        13.2179234960       -2.0077496872       -8.8140936637
  H        13.6486610855       -0.4304825724       -9.1903015188
  H        -1.5959292387       14.0517406752       14.6783432885
  C        -2.3919227156       13.6883879112       15.4029047388
  H        -3.0241818328       14.5200086501       15.6933997472
  C        -1.6536003067       13.2517022891       16.6582445070
  C        -3.1984361362       12.6001358668       14.6803765222
  C        -2.3601317172       13.5443014110       18.0208393580
  H        -1.4838885163       12.2222561502       16.4739242554
  H        -0.7037321781       13.6999586706       16.7795314340
  H        -2.4910168983       11.8408747809       14.3204340847
  H        -3.8475664946       12.1082251662       15.3565756667
  H        -3.6859094968       12.9067771282       13.7443234836
  C        -1.5753928672       13.0476531210       19.2001710507
  H        -3.3396949173       13.1680165945       18.0202848796
  H        -2.4289928500       14.5839894215       18.0752105079
  C        -2.4075754546       13.0798355433       20.4661104569
  H        -1.4165963413       12.0052660887       18.9523080405
  H        -0.5832098146       13.5341126151       19.2519139814
  C        -1.5587823808       12.6421343133       21.7281976181
  H        -3.3235124909       12.4887032948       20.4384345990
  H        -2.7243447979       14.0855221802       20.6190179309
  C        -0.4419527268       13.6363543934       22.1307423622
  H        -2.1979118950       12.3484000526       22.4908596534
  H        -1.0774560779       11.7449644645       21.3552048127
  C         0.8193062643       13.0233649675       22.8771821289
  H        -0.1663959711       14.2249245086       21.2807104710
  H        -0.8461156748       14.3534685056       22.8356689651
  C         1.1995003395       11.7061172250       22.2332713763
  C         0.5384069794       12.3190278046       24.1520040030
  C         2.1009031329       14.0280831114       22.9487586592
  C         1.0042557422       10.5738950649       23.0444203712
  C         1.7157687402       11.2750369404       21.0121603171
  C         0.5790480411       10.9835883069       24.2780013392
  C         0.1767015852       12.9219878092       25.3427434015
  H         2.3467422641       14.4247567506       22.0338859724
  H         1.8484621409       14.8334918356       23.5773200292
  C         3.3812308702       13.4175133794       23.4521601270
  S         1.3239204831        9.0222541009       22.3110751033
  C         2.0120162230        9.9333774576       20.9797149502
  H         1.7277018438       11.9790768406       20.1991516833
  C         0.2019587679       10.3520140296       25.4101669930
  H         0.1129250282       14.0320072238       25.3220509194
  C        -0.1521502590       12.2957396576       26.5062641232
  H         3.6627525018       12.6619807041       22.7513594163
  H         3.1560169964       12.7883074465       24.3160003502
  C         4.4481587447       14.4313733411       23.8797749520
  C         2.5320585232        9.3033228374       19.7654319321
  C        -0.1266842310       10.9591586614       26.6364793274
  H         0.2778776462        9.3164352556       25.4787166580
  C        -0.5611431941       12.7196559514       27.7531555188
  H         5.2637659035       13.9249489438       24.4086722965
  H         4.0174785864       15.2836720850       24.4349469898
  C         5.3111750426       14.9966626973       22.7774342020
  C         2.6139053094        7.9277665946       19.5107616244
  C         3.0089477984       10.2042673625       18.6561476146
  C        -0.6050203721       10.3214427626       27.8649217908
  C        -0.8292936259       11.6696083388       28.5556467644
  S        -0.7194402378       14.1785925567       28.5263604413
  H         5.8985253404       15.9026418792       23.0113716426
  H         4.7652604279       15.1942301774       21.8614839249
  C         6.2294281323       13.9251535702       22.2143713121
  N         2.3190887180        6.8998461192       20.4335990366
  C         2.9490727213        7.3973482081       18.2782906053
  C         3.3569454636        9.6009732624       17.4110077597
  H         3.0362786596       11.2546613808       18.7412641791
  C         0.5267330652        9.5322732388       28.6673111310
  C        -1.9172533329        9.5277415801       27.8058499873
  C        -1.2426770253       12.0062708526       29.8721723918
  C        -1.1690489859       13.3767590483       30.0587474959
  H         7.2285370187       13.9637933293       22.7347744968
  H         5.8531377016       12.9503311313       22.5012596037
  C         6.2533340383       14.0231762296       20.6853331775
  S         2.6180025857        5.4895237271       19.6822311579
  N         2.8757494032        6.0317102161       18.1806370417
  C         3.2870861443        8.1341446568       17.1516338378
  H         3.8838789430       10.2721630139       16.7226606923
  H         0.6414938264        8.5487473720       28.0981609389
  H         0.0043251816        9.1306272655       29.6097896633
  C         1.7933147731       10.3018974583       29.0421934553
  H        -1.6917242127        8.6258501419       27.1582763780
  H        -2.1116430375        9.1378373177       28.7919175235
  C        -3.1419879173       10.3529640998       27.2577516140
  H        -1.4184005716       11.2255485255       30.6139580961
  C        -1.5359778841       14.1319349185       31.2759066874
  H         6.4135488882       15.0475244969       20.4085677443
  H         5.2467207662       13.6181365504       20.3039021136
  C         7.2952196004       13.0976724647       20.1483931562
  C         3.4834127146        7.4645158065       15.9391256278
  H         2.1759546225       10.8503340365       28.1753737302
  H         1.5314504709       10.9960242344       29.8944741035
  C         2.8098002055        9.3534553616       29.5747052148
  H        -2.8917533957       10.9654616711       26.4226880208
  H        -3.2404388770       11.2972464253       27.8490612658
  C        -4.4307219220        9.5648092100       27.0451173711
  C        -1.5559734369       15.5504954690       31.4774032140
  C        -1.8085209539       13.3284702091       32.5089957992
  H         8.2236996658       13.4483239855       20.6464221206
  H         7.1369793961       12.0475944599       20.5503730242
  C         7.3861595421       13.1577657231       18.6517995025
  H         3.5554469118        6.3713514290       15.9300156072
  C         3.6658808550        7.9254139884       14.6522295153
  H         2.8809125870        8.5348815728       28.9348990785
  H         2.5623666892        8.9924116004       30.5342534165
  C         4.2298427068       10.0558054602       29.5368553887
  H        -4.3398597974        8.9704355141       26.1078828572
  H        -4.6322653844        9.0233695512       27.9623154202
  C        -5.5091443048       10.5570403604       26.9005127761
  N        -1.3215082747       16.4802631652       30.4163907885
  C        -1.6990539307       16.1420173650       32.7159167778
  C        -2.0280306287       13.9226113463       33.7173442121
  H        -1.7156309521       12.2581597677       32.4554963471
  H         7.7822437481       14.0945109940       18.3495977891
  H         7.9487736089       12.2981336821       18.1306351505
  H         6.3604637492       13.1683999147       18.2480252914
  S         3.8316575136        9.6256224690       14.3102605630
  C         3.8514589279        7.0690036753       13.4586570730
  H         4.2224996430       10.7189814255       28.6695538848
  H         4.2857306802       10.7772343756       30.4208485394
  C         5.4406689559        9.1055012830       29.3735856055
  H        -5.2186745148       11.2074553306       26.0660092127
  H        -5.4877310997       11.1991120170       27.8351744369
  C        -6.9512003841       10.0601728081       26.7098255713
  S        -1.2404748293       17.9257768306       31.0977266146
  N        -1.6606862275       17.5424893813       32.6175173301
  C        -2.0560575983       15.4254453894       33.8216505400
  H        -2.2366256237       13.2522119354       34.5516166841
  C         4.1299778890        9.2081755811       12.6231526364
  N         4.2001697376        7.9234644366       12.4295283449
  O         3.9428200924        5.8661852472       13.3754819315
  H         6.3960439153        9.6587972675       29.4198235865
  H         5.3086206287        8.6154268687       28.4319086972
  C         5.3637299030        8.0300386487       30.4347917599
  H        -7.0404710908        8.9490759851       26.7263580129
  H        -7.3676144503       10.4675934099       27.6040935854
  C        -7.5950335380       10.5571191279       25.4449759579
  C        -2.2272180181       16.0973877052       35.0815763199
  S         4.9524333452       10.2903131446       11.4542465998
  C         4.4751327512        7.3073306495       11.1263584187
  H         5.2167208472        8.4405881582       31.4066826020
  H         4.5808299836        7.2804352459       30.2682190862
  C         6.6251160760        7.2102264457       30.5163663409
  H        -7.0398079574       10.1355354499       24.5572270700
  H        -7.4073789165       11.6278931908       25.3557923365
  C        -9.0980189725       10.0683874573       25.3781316613
  H        -1.9155732227       17.1335620599       35.0544512699
  C        -2.6351389025       15.7256205006       36.3344747071
  H         5.1291058156        7.9594054049       10.5331892481
  H         5.0048427490        6.3407098643       11.2943609412
  C         3.1896157226        6.9402811843       10.4128663548
  H         7.4722514522        7.8756352150       30.6835318355
  H         6.7773297744        6.8346559634       29.5014094327
  C         6.6474363085        6.0673424029       31.5611147705
  H        -9.4474393306       10.3978597859       24.3507154354
  H        -9.0649728586        9.0389472511       25.4670020773
  C       -10.1260858923       10.5715918838       26.4587468294
  S        -3.2439869475       14.1942088527       36.7824222678
  C        -2.9253474275       16.7907143050       37.3197979691
  H         3.1962554025        7.3549443373        9.4411574432
  H         3.2326433363        5.8499139583       10.0904314124
  H         2.3009400352        7.1963489116       10.9724731058
  H         7.7248121627        5.8205845837       31.7353164532
  H         6.1748747029        5.1777935710       31.1744842017
  H         6.1034520496        6.3515278601       32.4233351190
  H       -11.0141229895        9.9942441898       26.4899766938
  H       -10.2831802860       11.6649106491       26.3435651345
  H        -9.6711293201       10.4068098602       27.4692941818
  C        -3.9394019554       15.0131138829       38.1568283976
  N        -3.6324829787       16.3421994882       38.3144839107
  O        -2.7103093010       18.0291027062       37.0962017785
  S        -4.7194032755       14.1717045253       39.4440465135
  C        -3.7617503574       17.0026417181       39.6023579243
  H        -3.6788140564       18.0438826890       39.4330797592
  H        -4.7749501244       16.8643063186       40.0240488883
  C        -2.6449579621       16.6932831891       40.6469071927
  H        -2.1294012678       17.6069873147       40.8535331862
  H        -2.9846750038       16.3185447054       41.6042154401
  H        -1.9699862691       16.0028869625       40.2912999937
