352
i=
  H         4.7775794446        1.3566145602       12.8373802393
  C         3.9641355976        2.0213532924       12.9603177460
  H         4.3451797233        3.0425191604       12.8169977601
  C         2.8597120276        1.9791822682       11.9204769562
  C         3.4018219174        1.8341986895       14.3713733125
  C         3.3732916165        2.1497610022       10.4682795920
  H         2.0730198649        2.8358739361       12.0629561407
  H         2.3190606661        1.0498699110       12.0541314597
  H         2.9307291614        0.8330414747       14.4777011253
  H         2.5872243033        2.5928212259       14.5194335544
  H         4.0775187103        1.9670469621       15.1756615922
  C         4.1897378322        0.9563348791        9.8383634132
  H         2.5161927638        2.4605937444        9.8492946348
  H         3.9836696911        3.0949418998       10.4964557675
  C         5.0075595052        1.4139508565        8.5925213345
  H         3.4383907505        0.1735872643        9.5056545041
  H         4.8707751171        0.4969989965       10.5545795040
  C         6.1271169253        2.4836932816        8.8287959677
  H         4.3521373586        1.7329026023        7.8077940938
  H         5.4625137597        0.5684244650        8.0765248631
  C         7.4797519727        1.8076580938        9.0872119863
  H         6.0370445250        3.1479209921        7.9708480766
  H         5.9295819616        3.0829993864        9.7254307338
  C         8.7589130660        2.7559059534        9.2931348721
  H         7.7558337012        1.1535678780        8.3561465871
  H         7.5208872181        1.1371261618        9.9885856733
  C         8.4192890785        4.0858970207        9.9376953753
  C         9.2559509950        3.5353367806        8.0092229223
  C         9.9815489674        2.0805739482        9.9446902511
  C         8.7837391069        5.2314078769        9.2289865068
  C         7.9460101821        4.4136563940       11.1798792512
  C         9.2451108912        4.8802433034        7.9649582072
  C         9.6792119061        2.8802587090        6.8197428308
  H         9.7481712516        1.7487848666       10.9528409832
  H        10.3715227632        1.1700918066        9.2564418538
  C        11.1916469491        2.9015861420       10.0834470461
  S         8.3373197259        6.7291491542       10.0807704229
  C         7.8855722835        5.7654122391       11.4049603496
  H         7.8697156996        3.5639562312       11.8794305289
  C         9.7653270728        5.4862187935        6.8382886905
  H         9.7652200434        1.8060158616        6.9489118649
  C        10.1472343456        3.5119062353        5.7236116785
  H        10.9446404312        3.9066766918       10.3912427380
  H        11.6579156641        2.9448946158        9.1675335679
  C        12.1306314333        2.2821675031       11.0687798768
  C         7.5011944370        6.2484594237       12.7978263518
  C        10.1883467646        4.8151093475        5.6493204479
  H         9.7845916219        6.5958759166        6.8631097036
  C        10.5164406487        3.0464732448        4.4694721768
  H        13.1735767544        2.5253000182       10.7618141862
  H        12.0482987654        1.2427832528       10.9956967026
  C        11.7472303377        2.8145845478       12.5033286999
  C         7.3395208028        7.6203145722       13.0758921248
  C         7.1146774047        5.3762242533       13.9191881118
  C        10.5629708835        5.4593219830        4.3223162159
  C        10.8064720525        4.1297380605        3.6929238652
  S        10.5296629089        1.5816400179        3.6940911166
  H        12.0312198444        3.8676796560       12.5836164999
  H        10.6307818327        2.6663420396       12.5788476119
  C        12.5618487695        2.0412991596       13.4829604469
  N         7.6325395537        8.6855675733       12.2539116836
  C         7.0240995727        8.1245998152       14.3836152266
  C         6.8860750684        5.8218819065       15.2026875852
  H         6.9931026253        4.3019649408       13.7435174464
  C        11.8880159558        6.1658323974        4.4303611831
  C         9.4894720383        6.2812644585        3.5337795499
  C        11.3676442806        3.6843255931        2.4957531010
  C        11.3302858065        2.2989640199        2.3740593685
  H        13.5602724150        2.1366660049       13.1763949476
  H        12.2599675154        1.0481632109       13.2833218255
  C        12.1672684384        2.4228501905       14.8845860671
  S         7.6097772915       10.1295997237       13.0452928900
  N         6.9671184318        9.5111308537       14.4476321913
  C         6.7197362136        7.2990267621       15.4797024144
  H         6.7871340040        5.0671005986       15.9851788648
  H        11.6559952583        7.0220154926        5.1684918672
  H        12.0681534435        6.6156433672        3.4586122840
  C        13.1626108570        5.3256300548        4.7484283741
  H         9.2413557996        7.2200299401        4.0817582956
  H        10.0384767665        6.6463613143        2.6316805556
  C         8.2194171624        5.5309922324        3.1241863242
  H        11.7117619859        4.3717857360        1.8385260430
  C        11.6960008059        1.5953053714        1.1271834909
  H        11.8668965216        3.4675761401       14.8081873982
  H        11.3185448847        1.8211397347       15.1619839187
  C        13.2629661418        2.1695796435       15.9438551468
  C         6.5155616235        7.9181919153       16.7463784109
  H        12.9902382225        4.8733971000        5.7261995863
  H        13.3518409828        4.6015646351        4.0218181095
  C        14.3400661360        6.2448504415        4.8698934021
  H         7.6494997676        5.3386029131        4.0469069536
  H         8.3797231017        4.5289499845        2.6035205709
  C         7.3838884955        6.3199039702        2.1321529266
  C        11.7478545066        0.1994968904        0.9357076383
  C        12.0678875332        2.4378012995       -0.0947553609
  H        13.9702441274        2.9604093233       15.6703646177
  H        13.7056868427        1.2282307093       15.6526184695
  C        12.8641847299        2.3295885883       17.4274771417
  H         6.4239367044        8.9823876341       16.6528266402
  C         6.1922295664        7.4878669866       17.9772081451
  H        14.3064097489        6.9737855436        5.6338542789
  H        14.4872398297        6.8480599036        3.9414741025
  C        15.6038770437        5.4070696510        5.2822824086
  H         7.9566977841        7.1767452130        1.6683237570
  H         7.2238056079        5.6261860368        1.3082228591
  C         6.0364432091        6.8025032438        2.6594583649
  N        11.5224158249       -0.7051825522        1.9300324478
  C        12.0497348570       -0.3842118977       -0.3245314371
  C        12.2940522511        1.8383913521       -1.3246016311
  H        11.9386914291        3.4983067599       -0.0389926767
  H        12.9408576021        3.3708400692       17.7742194035
  H        13.3140393501        1.6642476454       18.2216523523
  H        11.7840241911        2.0418790071       17.6403663201
  S         5.9211170237        5.7741832165       18.4508667386
  C         6.1015970933        8.4521094529       19.0524390686
  H        15.3884038648        4.3394514153        5.1450566040
  H        16.3570663029        5.5446015467        4.5830966305
  C        16.0133594139        5.7663309816        6.6521786216
  H         6.1945887429        7.6393205637        3.3059392152
  H         5.5734941815        6.0397294750        3.2795863070
  C         5.0152757971        7.0237154391        1.5882295553
  S        11.5881718927       -2.2150107088        1.3076846392
  N        12.0136143265       -1.7974324321       -0.2841985119
  C        12.3339468117        0.3512530243       -1.5167428789
  H        12.5223013806        2.4235786801       -2.1914099231
  C         5.6941211476        6.4457366846       20.0478129611
  N         5.7561401383        7.7760383836       20.1631407815
  O         6.5611053351        9.6232828836       19.0023013534
  H        16.1820888254        6.9157289968        6.6590404529
  H        15.1827296296        5.5652820805        7.3590976375
  C        17.1764686074        4.8996380218        7.1221526424
  H         5.4504707287        7.3743626384        0.6129138294
  H         4.5354674861        6.0441724975        1.3730331831
  C         3.9930356327        8.0387523378        2.0148626676
  C        12.5351374442       -0.3425371610       -2.7914670792
  S         5.5792393097        5.5231060751       21.5338532439
  C         5.7504859667        8.5181295316       21.4427155709
  H        17.0573909001        4.9352884910        8.2202172160
  H        16.9806332227        3.8611095579        6.7586162218
  C        18.5347434465        5.5609307156        6.8407055016
  H         3.9432339531        7.9965896672        3.0890832816
  H         3.0059391862        7.9242684536        1.5611874154
  C         4.4534262494        9.4342478107        1.7431755796
  H        12.2547488419       -1.3756151399       -2.7023165473
  C        13.0864881425        0.1044655074       -3.9594962016
  H         4.9835154844        8.0981516263       22.1016223874
  H         5.3372056415        9.4798383150       21.2278038685
  C         7.1095427061        8.4623963228       22.1354746889
  H        19.0242417312        5.5453761436        7.8248852376
  H        18.4064996249        6.5415220463        6.4298520737
  C        19.3689502175        4.7085726567        5.8614986946
  H         4.0734387190        9.8984276557        2.6059052576
  H         5.5581953817        9.5748066384        1.7016721818
  C         3.7396429791        9.8770515966        0.4458991560
  S        13.5608644256        1.7562790492       -4.3849787645
  C        13.2131435660       -0.8791767577       -5.0781595025
  H         7.0284479221        8.1039471603       23.1425244488
  H         7.6057873779        9.4489817999       22.1954550101
  H         7.7473059512        7.8553142629       21.5978326529
  H        19.2842804709        4.9874079731        4.8865159518
  H        20.4133640063        4.8026038731        6.1967583833
  H        19.1516213122        3.6200257367        5.8905792924
  H         4.2017111752       10.7720860990        0.0505112896
  H         3.8098956835        9.0584627567       -0.2601837487
  H         2.7206058794       10.0970098261        0.4640044830
  C        13.9071329911        1.0395034765       -5.9634751300
  N        13.7227510444       -0.2616847328       -6.1522685335
  O        12.9621139335       -2.0968892477       -4.9872794770
  S        14.6847887695        2.0024005927       -7.2641965543
  C        13.8957390285       -0.9461745965       -7.4181623055
  H        14.3819187509       -1.8525113204       -7.1397342560
  H        14.5966996488       -0.4402739795       -8.0380560454
  C        12.6697839623       -1.2583365565       -8.1945817496
  H        12.7539586636       -0.8555391226       -9.2074530713
  H        11.7813618894       -1.0780936698       -7.6852216881
  H        12.8081292416       -2.2536262603       -8.3621817357
  H        -4.0040590923       13.7099105729       15.9404741632
  C        -3.4410704128       12.8236482926       16.0598718537
  H        -4.2276498439       12.0849570309       16.2514100096
  C        -2.4595869672       13.0101283396       17.1639490255
  C        -2.7942136212       12.4886922891       14.7368810591
  C        -3.0643593266       13.1048382264       18.5251171092
  H        -1.7836571755       12.1630499722       17.2485973707
  H        -1.8759765560       13.8538950201       16.8609243664
  H        -3.4863107811       12.8414397190       13.9416204189
  H        -1.8058598488       12.8630824220       14.4860456252
  H        -2.7495465013       11.4209352746       14.5694557723
  C        -2.0073683586       13.1845337723       19.6949861171
  H        -3.7852559990       12.2995875142       18.6848087722
  H        -3.5971541815       14.0746398856       18.4965759549
  C        -2.5258096306       12.8951847754       21.0751720113
  H        -1.1380409178       12.5180261395       19.4323026283
  H        -1.5277285653       14.1448987900       19.6570827321
  C        -1.3972559830       12.2700203514       21.8694788021
  H        -3.3485175320       12.1706301940       21.0970662616
  H        -2.8913225246       13.8590720512       21.5602398390
  C        -0.3737278684       13.3929440737       22.1188682612
  H        -1.8841851908       11.9913781658       22.8429637653
  H        -0.9102124910       11.4303322662       21.2821218865
  C         0.7827360863       12.8084404735       22.9866364175
  H         0.0927436310       13.7150266532       21.2073127593
  H        -0.8301627998       14.2917912491       22.6198428685
  C         1.2474101929       11.5021052717       22.3910834449
  C         0.3814061875       12.1799816615       24.3038064496
  C         1.9241461481       13.9483188582       23.2737520982
  C         1.1179739056       10.4373253019       23.2345483297
  C         1.6973654997       11.0903975478       21.0542733268
  C         0.5664152492       10.8257054403       24.4015118078
  C        -0.0815635098       12.7497124660       25.4568837193
  H         1.9938718651       14.5965600297       22.4271731346
  H         1.6218924423       14.7080148699       23.9947566811
  C         3.2972996558       13.3384975088       23.7627356136
  S         1.4992943271        8.8913135728       22.4812571473
  C         1.9438426736        9.7193749677       21.0519129968
  H         1.9136479522       11.8512074411       20.3437333360
  C         0.1474785665       10.1193679694       25.5010227418
  H        -0.2301123571       13.7891344590       25.5421197362
  C        -0.4478248531       12.0907572142       26.6164661643
  H         3.5573541596       12.6515412503       22.9317153554
  H         3.2489388360       12.7266380642       24.6961197168
  C         4.4739208835       14.3609228939       23.9101454534
  C         2.4918772706        8.9762894550       19.8756434715
  C        -0.4407762651       10.7446111543       26.5963153758
  H         0.1571089146        9.0040069062       25.4345873369
  C        -0.8334467944       12.4592827708       27.8435355940
  H         5.2286150604       14.0906029152       24.6180195604
  H         4.1964273924       15.3476320201       24.2212827970
  C         5.1799618399       14.3624668317       22.5442516149
  C         2.4346010396        7.5993653659       19.5888321890
  C         3.1125075405        9.7870204317       18.8111027347
  C        -0.9002659283       10.0168852757       27.8426332678
  C        -1.0534943956       11.3289412417       28.5861472152
  S        -1.0800981500       13.9030298446       28.7204139714
  H         5.7640315089       15.2224140029       22.3262289052
  H         4.4590142529       14.2281017146       21.7508855407
  C         6.1380149229       13.1669828807       22.2957398032
  N         2.1956276200        6.5657490404       20.4997403154
  C         2.7396857693        7.0930690191       18.3730168869
  C         3.3239442420        9.3258300794       17.5636791727
  H         3.3882627883       10.8301361685       19.0635501819
  C         0.1734288730        9.1366907457       28.4608713450
  C        -2.2316405096        9.2628949927       27.6507080174
  C        -1.5490486559       11.6493180255       29.9032992109
  C        -1.6373093016       13.0164911161       30.0997701217
  H         7.1527944780       13.6467821893       22.2732723472
  H         6.0684511564       12.4841218704       23.1357787047
  C         5.9033387599       12.3607791842       20.9904876098
  S         2.3681609373        5.1349779973       19.7414503761
  N         2.4994342997        5.7617124608       18.2625617394
  C         3.0789025606        7.9059049135       17.2512164920
  H         3.7368392392        9.9520807291       16.8255041934
  H         0.5549923299        8.5523436492       27.6641789585
  H        -0.2788077266        8.5061519070       29.1999250163
  C         1.2930130679        9.8819176898       29.2109897173
  H        -2.0315670367        8.3615676324       27.0642056515
  H        -2.4805239000        9.1563363718       28.7287987185
  C        -3.2931665968       10.0861627607       26.8911938878
  H        -1.8437262142       10.8325253015       30.5867927208
  C        -1.8964225259       13.6809274184       31.4073686584
  H         4.9943462294       11.8280154712       20.9961705878
  H         6.7193708160       11.5457148359       20.7921195042
  C         5.9253348417       13.3107468136       19.7339564524
  C         3.2518068928        7.2867352743       16.0153286923
  H         1.6811433448       10.6677460701       28.5173312435
  H         0.9230288664       10.3743164002       30.1117956337
  C         2.3519969411        8.8606417514       29.6709159336
  H        -3.0566935978       10.3416233761       25.8880530836
  H        -3.4050008472       11.0242624066       27.4352424536
  C        -4.5554252966        9.2209508269       26.9073000306
  C        -1.9068291373       15.0897195672       31.6914015522
  C        -2.1305649632       12.8369169433       32.6054987329
  H         5.3836369548       12.7142667619       19.0034129109
  H         5.3352453574       14.2218924169       19.7918953721
  C         7.3550617566       13.4623828651       19.1261501234
  H         3.2859074795        6.2427129637       16.0706020521
  C         3.4796188941        7.6717376329       14.7024992238
  H         2.6807846837        8.3106100498       28.7842771369
  H         1.9654619724        8.0566640779       30.2861922364
  C         3.5544901338        9.5803590670       30.3582242190
  H        -4.5833751620        8.5054228647       26.1091827499
  H        -4.4309151284        8.5049721539       27.7062707887
  C        -5.8308283468        9.9422525970       26.8920138321
  N        -1.6587413043       16.0861042318       30.7602142337
  C        -2.1324000461       15.5808148852       32.9682231086
  C        -2.3343436520       13.3851922652       33.8763701757
  H        -2.1652355466       11.7632439786       32.5079152164
  H         7.7510449693       12.4542580531       18.9540137640
  H         7.3294713941       13.8476125147       18.1345764199
  H         8.1058330250       14.1268206238       19.5591682502
  S         3.6934724511        9.2760365774       14.1085764302
  C         3.6522410784        6.6026362267       13.6637366107
  H         3.5630094853       10.5338715694       30.0182105830
  H         3.2962262969        9.6247821229       31.4282721323
  C         4.8802524808        8.8633338925       30.2956854492
  H        -5.7042415901       10.8201838931       26.2620801509
  H        -6.0671999321       10.2626680852       27.9459955381
  C        -7.1104103055        9.2236787764       26.4477658496
  S        -1.9354233327       17.5135322132       31.4533357606
  N        -2.2373659646       16.9759310329       32.9438038079
  C        -2.5277886432       14.7956014400       34.0298304752
  H        -2.5155950059       12.6004517405       34.6115148793
  C         4.0748133322        8.5652953882       12.5680940620
  N         3.9180254273        7.2127144999       12.5317685064
  O         3.5516652113        5.3763657081       13.8036640582
  H         5.5360507279        9.4067448905       30.8916112648
  H         5.1872478869        8.8187130563       29.2114057675
  C         4.9914035320        7.4319402305       30.7871952571
  H        -7.0683604084        8.1703908556       26.6162911212
  H        -7.8761515339        9.6675394695       27.1540243167
  C        -7.3980995554        9.5868515683       24.9361130147
  C        -2.8356258755       15.4204453638       35.2826792268
  S         4.4356213768        9.3194208945       11.0241765523
  C         4.1413633907        6.4254864531       11.2843668007
  H         4.8511308172        7.3909898199       31.8506034607
  H         4.1979270894        6.8527511504       30.4500833120
  C         6.2249226494        6.7860968695       30.1905696962
  H        -6.7474151564        8.8919236570       24.3465558818
  H        -7.0005328193       10.5311708380       24.6494774695
  C        -8.8517864480        9.4512283514       24.5263635458
  H        -2.5743232863       16.4755013202       35.3130693857
  C        -3.4332295043       14.9538423810       36.4637761371
  H         4.9182503215        6.8495899008       10.6000380232
  H         4.5025926959        5.4477369150       11.4636050249
  C         2.9189664844        6.3343334359       10.4352537928
  H         7.0880702325        7.4116157655       30.4954161935
  H         6.1394268086        6.8781978049       29.1414397743
  C         6.4865350732        5.3868550103       30.8094664573
  H        -8.8378199498       10.1688194874       23.7294084198
  H        -9.0621277277        8.4301934214       24.1624146939
  C        -9.9607610448        9.8559931271       25.5714203856
  S        -4.0367143615       13.3960586363       36.7238603594
  C        -3.6743575534       15.9587213539       37.5115524085
  H         2.8735748369        5.4390965758        9.8015082623
  H         1.9797526769        6.2592484895       11.0713325578
  H         2.8873926061        7.1957299994        9.7485955257
  H         6.6467480134        5.4806071739       31.9022766079
  H         7.4354616332        5.0739540211       30.3906348571
  H         5.7438044755        4.6402321365       30.6764321275
  H       -10.9472263885        9.8690557221       25.0825070026
  H        -9.6822579562       10.8931185772       25.9497494642
  H        -9.9235831825        9.2197664068       26.4303722035
  C        -4.4398567684       14.0040944611       38.3590466134
  N        -4.3730152824       15.3527687837       38.5215936900
  O        -3.4619186775       17.1215214506       37.2916642551
  S        -5.2427300408       13.0922556691       39.6452309240
  C        -4.7526004319       16.0100547736       39.7358350631
  H        -4.6885304227       17.0699356614       39.5749183178
  H        -5.8481710361       15.8626686125       39.8698046862
  C        -3.7725377799       15.7180330138       40.9481322279
  H        -4.1876522537       15.2080853622       41.8502811591
  H        -2.9299928527       15.1254711762       40.5955145577
  H        -3.4123954438       16.6380630017       41.4434063372
