352
i=
  H         2.4237585061        4.0139645207       12.2477477777
  C         2.7558756948        2.9948751512       12.1749504676
  H         1.8721728432        2.5265888973       11.7151972476
  C         4.0184845405        2.9758163798       11.3027768559
  C         3.0055706504        2.4799156176       13.5926284065
  C         3.7133419903        2.6486755603        9.8360713512
  H         4.8741220379        2.4145783107       11.6920015030
  H         4.5994983038        3.8888811417       11.1700055952
  H         3.0584310936        3.3726234194       14.2273104800
  H         3.8934831041        1.8571698738       13.6816107860
  H         2.2282306283        1.8786491014       14.0009441881
  C         4.5986359546        1.6271804295        9.1098963440
  H         2.6545943272        2.3601065015        9.7345894886
  H         3.7805987601        3.6316615826        9.3294025480
  C         5.6047563893        2.2618570907        8.1320318841
  H         3.8753225641        1.0135117654        8.6741559600
  H         5.0861510919        1.0475711799        9.9252155223
  C         6.8053475615        3.1706515090        8.6415009045
  H         5.0486017050        2.7949245013        7.3928855472
  H         6.0520273273        1.5348097714        7.4984408431
  C         8.0500203310        2.3636722101        9.1520092670
  H         7.0022704028        3.8919302369        7.8727265087
  H         6.3314659893        3.8121942841        9.3891819463
  C         9.3209207608        3.2853159031        9.4234471489
  H         8.2440366825        1.5290581907        8.4597954360
  H         7.8676131403        1.9214971321       10.0786976825
  C         9.0318315670        4.6647384174       10.0994895889
  C         9.7251441140        3.9583260703        8.1927324943
  C        10.5247579941        2.5037268745       10.0792926207
  C         9.1319356808        5.6981333226        9.2241350689
  C         8.5306184939        5.0821387025       11.3920102202
  C         9.6961516666        5.3105008729        8.0394519355
  C        10.1025938867        3.2694929091        7.0242520357
  H        10.1222574699        2.0874503224       11.0333150721
  H        10.8955465548        1.6477220565        9.5718728009
  C        11.6705413588        3.4209102616       10.4987286498
  S         8.5885307246        7.2174270387        9.9242826710
  C         8.3528175435        6.4471646907       11.4134676334
  H         8.2089792387        4.3361163776       12.1035801843
  C        10.1798102722        5.9133117384        6.9425421480
  H         9.9440319203        2.2294988242        6.9876128545
  C        10.5407843975        3.8670440643        5.8740073196
  H        11.3961303195        4.4765459038       10.6473816135
  H        12.2854796921        3.3807995327        9.6312995797
  C        12.4675964761        2.9945777234       11.7502036057
  C         7.7135538035        7.1840798104       12.5805732160
  C        10.5794604679        5.2221294312        5.7942093456
  H        10.1352028647        7.0220948925        6.9394300871
  C        10.9734158565        3.4524503874        4.6435546472
  H        13.4606047485        3.5038995617       11.8174715372
  H        12.8010711238        2.0024160952       11.6615658029
  C        11.6588859568        3.0839732275       13.0537638438
  C         7.7811540531        8.5806856437       12.8070974260
  C         7.2268720810        6.2954623373       13.7052070367
  C        11.0892753602        5.8732215566        4.5424736065
  C        11.3103698535        4.4950420029        3.7992503910
  S        11.2386395491        1.8740478244        3.9672124522
  H        11.4019214308        4.1272239912       13.2949004853
  H        10.6773183264        2.5692909319       12.9493450249
  C        12.5038484713        2.3818674258       14.1543556757
  N         8.2825266517        9.4823560655       11.9172349491
  C         7.3958397816        9.1536064115       14.0161919405
  C         6.9413591036        6.8978919445       14.9516963779
  H         7.2120897793        5.2141959601       13.5692970313
  C        12.3983720157        6.5783535547        4.6314378194
  C        10.0145394192        6.7358435086        3.8632169229
  C        11.8078823358        4.0451009130        2.5423979657
  C        11.7692835911        2.6874065511        2.5156830485
  H        13.3847967433        3.0465869204       14.4211043428
  H        13.0847557421        1.5459644841       13.8030546148
  C        11.6705252421        2.1258893549       15.3207645117
  S         8.0711260661       11.0102342721       12.5300396329
  N         7.6277387555       10.4897009585       14.0065929560
  C         7.0353188266        8.3669308156       15.1546517289
  H         6.6627168106        6.1729817615       15.7496589371
  H        12.3187629531        7.4143104702        5.3213883529
  H        12.6900393203        6.9588628731        3.6759736348
  C        13.5203806328        5.7045198309        5.1712889869
  H         9.6467720311        7.3956089037        4.5571805537
  H        10.6076986311        7.3538937333        3.2190616154
  C         8.8642313014        5.8998533046        3.2040296721
  H        11.9981306013        4.7573863067        1.6735693746
  C        11.9748055370        1.9135280077        1.2667315751
  H        10.9945466115        2.9446873892       15.5155084085
  H        10.9948152355        1.2417754018       15.0748959707
  C        12.4114783800        1.9078227486       16.6430833421
  C         6.7396446366        9.0122749980       16.4148612169
  H        13.1665519781        5.4709874065        6.2243739723
  H        13.7477109530        4.7713066301        4.6936740677
  C        14.9248858886        6.3792242230        5.3992733161
  H         8.4732504124        5.2207210233        3.9791207554
  H         9.1830905630        5.2434481574        2.3648118906
  C         7.6286604676        6.7305977384        2.6709510129
  C        11.7644467935        0.4919819423        1.0840338322
  C        12.2493887261        2.6053759049       -0.0238580662
  H        13.2040970530        1.1845915907       16.5285451957
  H        11.5713200973        1.6109207186       17.3126084970
  C        13.1304926251        3.1045951766       17.3331818545
  H         6.7359368578       10.0758265069       16.3204500544
  C         6.3412015915        8.5636114850       17.6501462225
  H        14.8667029068        7.4465025665        5.6801397094
  H        15.5629909831        6.4298251584        4.4910113216
  C        15.7796775200        5.5513870271        6.3663997077
  H         7.3417994061        7.4985634145        3.4123628556
  H         7.8580187482        7.1886223115        1.7171126706
  C         6.4399354940        5.7579729246        2.3805494736
  N        11.5111837194       -0.4226235491        2.1235512298
  C        11.9720845281       -0.2428770299       -0.0488226125
  C        12.4963966762        1.8848789286       -1.1988014724
  H        12.6652335260        3.5823268978        0.0109869492
  H        12.3205343922        3.8818541403       17.3521918091
  H        14.0746506781        3.4339509914       16.8571778566
  H        13.2611543660        2.8497819503       18.3699185553
  S         6.0462451770        6.9187930342       18.2278119325
  C         6.3154830549        9.6327762656       18.6767431415
  H        15.7075514607        6.0546436720        7.4032443785
  H        15.3639351041        4.4902363454        6.5347353852
  C        17.3283438178        5.5545208253        6.1222550487
  H         6.4302368901        5.0900080139        3.2921717098
  H         6.4878369792        5.1222457854        1.5201883836
  C         5.1110823077        6.3999813408        2.2813722759
  S        11.3510928648       -1.9563335910        1.5972432419
  N        11.9865338916       -1.6244160316        0.1288636846
  C        12.3915916578        0.3763403275       -1.2469233469
  H        12.8040900196        2.3467933569       -2.0958417102
  C         5.7855371621        7.7350793246       19.8020731054
  N         6.0259525395        9.0573698488       19.8550418044
  O         6.7881709520       10.7523786849       18.6118619827
  H        17.6109019427        4.8919878139        5.2809371745
  H        17.6115570756        6.5709784981        5.7582526256
  C        18.1437706079        5.1498440986        7.3599355546
  H         4.3227556675        5.6273525426        2.1849965168
  H         4.8624621891        6.8846768269        3.2238390709
  C         5.0357605000        7.4644481007        1.1792331521
  C        12.6334087647       -0.5106694850       -2.4075415714
  S         5.6094844098        6.8118856891       21.2840660414
  C         6.2030404060        9.8328315297       21.1366275654
  H        17.5404467583        5.0304004555        8.2525321546
  H        18.4899452253        4.1300152216        7.1780054790
  C        19.3766120604        6.0612309054        7.4741062452
  H         4.7485700860        6.8592898687        0.3171950032
  H         5.9935256505        7.8775692242        0.8998156209
  C         4.0449449605        8.5608976692        1.3751692434
  H        12.3167765634       -1.5483856263       -2.2939493258
  C        13.2674573520       -0.2876298774       -3.6296958798
  H         5.6039062289        9.3929106756       22.0233242120
  H         5.7574457470       10.7817337995       21.0967367512
  C         7.6309918597        9.9487233717       21.5595072114
  H        19.8556722517        5.8128402953        8.3732426013
  H        19.1853715975        7.1102038847        7.5775939056
  C        20.3610771120        5.9318295058        6.2708794044
  H         4.1684978452        9.1035993237        0.4627778696
  H         3.0346936839        8.1734661150        1.4728357042
  C         4.1676613374        9.3075567494        2.6959501472
  S        14.0093448559        1.1737968693       -4.1755693328
  C        13.2829025427       -1.4367561918       -4.5608430238
  H         8.0183532733        9.0889941635       22.1143959225
  H         7.6723285848       10.8550608962       22.1687140029
  H         8.2891714963       10.0443222769       20.6609134460
  H        19.9179920004        6.3184253221        5.3126991114
  H        21.2635356094        6.3895595571        6.4879621815
  H        20.5542406817        4.9222227019        6.2064424284
  H         3.7525697736        8.9249513203        3.6108602742
  H         5.2181051217        9.5805015809        2.7714150242
  H         3.6890943894       10.3015977142        2.4947245550
  C        14.2420820385        0.2345292449       -5.6832219647
  N        13.8475728324       -1.0569405980       -5.6968058112
  O        12.7075643069       -2.5364645079       -4.3713296495
  S        15.1263072878        0.8124999524       -7.1291052647
  C        13.7619722486       -1.8868286241       -6.8669626520
  H        13.6813288072       -2.9488589933       -6.4454944689
  H        14.6727935755       -1.9159393219       -7.4374447756
  C        12.5290221611       -1.5347023623       -7.6779246549
  H        12.5481336681       -2.0644205510       -8.6876345883
  H        12.5570685865       -0.4563175062       -7.9726532967
  H        11.5610489716       -1.5819447686       -7.1218323091
  H        -2.8783982187       15.1763015702       16.6434294270
  C        -2.6438687517       14.0881449576       16.8276201121
  H        -3.4319247613       13.7117434211       17.4867824954
  C        -1.3717397562       13.9545672896       17.6651267831
  C        -2.6036905349       13.2498221372       15.5546923661
  C        -1.4746205903       13.2053269028       18.9646867931
  H        -0.6158714823       13.5426165623       16.9983341926
  H        -0.9406412055       14.8989043189       17.8269524471
  H        -2.2269759069       13.8796149371       14.7891413782
  H        -1.9920054802       12.3650718468       15.5587790923
  H        -3.6295643575       13.0751195611       15.2041478833
  C        -2.3641913343       13.9066683691       20.0027651753
  H        -0.4324444507       13.1952155657       19.2427625048
  H        -1.8907633913       12.2820196792       18.8190772813
  C        -2.5754209285       13.1175465799       21.3538482708
  H        -1.9498752045       14.8089314014       20.3841958048
  H        -3.3710945169       14.1179372813       19.6449744900
  C        -1.3646700307       12.6198640979       22.1204204737
  H        -3.1922839041       12.2117701035       21.1838169129
  H        -3.0687910427       13.7025296144       22.1191251664
  C        -0.2016805788       13.6971629538       22.5071279792
  H        -1.7609064556       12.2749039360       23.0676865015
  H        -1.0164643612       11.7408171097       21.5025849261
  C         1.0082211029       13.0684352916       23.2094263319
  H         0.1784432515       14.1875556403       21.5841013605
  H        -0.6882501260       14.4788218419       23.1227929611
  C         1.4350443557       11.7522055732       22.5417738744
  C         0.5977437187       12.3822475829       24.4385016922
  C         2.1800707703       14.0467164804       23.5939484088
  C         1.2247802215       10.6239529420       23.3163285911
  C         1.9161155408       11.3881093929       21.2954358964
  C         0.7247067236       10.9910595426       24.5503213359
  C         0.2002409274       12.9632201201       25.6032239000
  H         2.4564527508       14.5159605226       22.6583768795
  H         1.8963647627       14.6904523191       24.4127677067
  C         3.5089650909       13.3831827458       24.0235082277
  S         1.6263331740        9.1000335417       22.5780667490
  C         1.9000774765       10.0072065375       21.1440035630
  H         2.0851335452       12.1368061730       20.5674571966
  C         0.2717024110       10.3906177972       25.6750081866
  H         0.2216307274       14.0328736856       25.5968898044
  C        -0.1955206699       12.3907750289       26.7264470936
  H         3.9266164729       12.7487675755       23.2796610235
  H         3.4504560956       12.8199420036       24.9125147745
  C         4.5277552393       14.4989611260       24.2057032975
  C         2.2829951804        9.3518611250       19.8278815370
  C        -0.1330447023       11.0353245926       26.8431739652
  H         0.2621977835        9.3194656440       25.7227914977
  C        -0.6283318164       12.7698225626       27.9628319976
  H         5.2381500627       14.2955286832       24.9934070667
  H         4.0825827069       15.3155848238       24.6402714323
  C         5.1090553308       15.0668309555       22.8827713074
  C         2.3143010725        7.9748025288       19.5685526481
  C         2.5405544369       10.2621426143       18.6753772750
  C        -0.5082237735       10.3598527875       28.1007548941
  C        -0.7877349730       11.6834601637       28.8177138622
  S        -0.9349359928       14.3184344801       28.6749689128
  H         5.5111160223       16.0951261511       23.0082024666
  H         4.3901607005       15.1726215900       22.1048884628
  C         6.1770392353       14.1161250809       22.3453158870
  N         2.0576277039        6.9141820319       20.4562650513
  C         2.5875319278        7.5065409758       18.2839974152
  C         2.9598538627        9.7339858171       17.4420991723
  H         2.3410379541       11.3230237323       18.6587232879
  C         0.5937100046        9.5590315879       28.7963611594
  C        -1.7290046968        9.5162477435       27.8627651535
  C        -1.1429188202       12.1025818246       30.1354408282
  C        -1.1703953955       13.5009683193       30.2066124627
  H         7.1164327709       14.6275620416       22.6043391290
  H         6.0184562028       13.1316179406       22.8295256421
  C         6.0993722752       14.0119286225       20.8315034658
  S         2.0920398196        5.5212918809       19.6283692481
  N         2.4589013009        6.0977389496       18.1682123339
  C         3.0743907052        8.2637515987       17.2352114270
  H         3.0917763876       10.4576580402       16.6836380600
  H         0.9948259837        8.8038384827       28.0863865196
  H         0.1978586725        8.8806587197       29.5853824598
  C         1.8287405757       10.4007532287       29.2797269746
  H        -1.4339979811        8.8709450395       26.9882368195
  H        -1.9097137449        8.8370450210       28.6903772305
  C        -2.9960444379       10.2575544197       27.5549855605
  H        -1.2939002550       11.4253023300       30.9952832995
  C        -1.4711683222       14.2610744731       31.3938334717
  H         5.5512517913       14.8308232162       20.3782839100
  H         5.4611407651       13.1695621772       20.5787285603
  C         7.5301917945       13.8790576763       20.3175947724
  C         3.3450240593        7.5408949802       15.9872738630
  H         2.2062040442       11.0228815018       28.5276218634
  H         1.6100604781       10.9519427453       30.1552007724
  C         3.0128915802        9.4483545886       29.6180531532
  H        -2.8010869362       10.9188339521       26.6167707065
  H        -3.2177645731       11.0230930871       28.2878618885
  C        -4.2231769831        9.3744577431       27.6058699618
  C        -1.5586650603       15.6998178739       31.5206430032
  C        -1.8190450740       13.5099172678       32.6515210662
  H         8.2298752369       14.7093913515       20.5539107906
  H         7.9488983026       12.9922607739       20.7075613893
  C         7.5105408728       13.7439412742       18.7999916165
  H         3.0187586752        6.5306609811       15.9287703819
  C         3.6751352921        8.0026247322       14.7037993951
  H         3.4532673938        9.0661750408       28.6990403531
  H         2.6863109238        8.5527654910       30.2400788538
  C         4.0535369603       10.3126233319       30.3770816607
  H        -4.0251964697        8.7134597005       26.7737066512
  H        -4.2769199206        8.9439240852       28.6162843441
  C        -5.5175322341       10.0213718988       27.1129719801
  N        -1.2848180089       16.5620274295       30.4774272355
  C        -1.9401640051       16.3511254052       32.6664426302
  C        -2.2311085877       14.2129355068       33.7919302790
  H        -1.6910032256       12.4271650027       32.7184937737
  H         8.1359485570       12.9504869544       18.4057393221
  H         6.4963394724       13.5454486538       18.4485372827
  H         7.8612154083       14.6727388320       18.3689126751
  S         3.9191715385        9.6972845574       14.3200783566
  C         3.7783491806        7.0860453834       13.5100315610
  H         3.8891219753       11.3783763016       30.0660031433
  H         3.8924057232       10.3577321602       31.4009641542
  C         5.5702419709        9.9580158832       30.2090415101
  H        -5.5864086459       11.0439015394       27.4712172122
  H        -6.3807215824        9.4868409068       27.4930976730
  C        -5.7094013908       10.2203218797       25.6288818440
  S        -1.4365431771       18.1181711312       31.0214235358
  N        -1.9089719469       17.7372862475       32.5070751019
  C        -2.2846668059       15.7213352631       33.8419423317
  H        -2.5490314139       13.6447273558       34.6477508453
  C         4.1552367920        9.1730624604       12.6800976158
  N         3.9585519308        7.8620578583       12.4040123630
  O         3.7621659971        5.8845147203       13.5405038882
  H         6.1410350374       10.7935442286       30.5757693173
  H         5.7037357848        9.6980012430       29.1085945502
  C         5.8742661686        8.8039335463       31.0912946670
  H        -4.7982277279       10.5860653788       25.0975915840
  H        -5.8187446844        9.2723012612       25.2387617088
  C        -6.9002821713       11.1768406193       25.3473885987
  C        -2.7059467350       16.4120940346       34.9688400417
  S         4.6226099463       10.2332261764       11.4100576112
  C         4.0798847130        7.1664271316       11.0357649656
  H         6.6494407621        9.0716252041       31.8323692539
  H         5.0449708297        8.5115149520       31.6573306441
  C         6.4543126655        7.5486128258       30.4630133805
  H        -6.7311809290       11.7083086539       24.4452669742
  H        -6.9509035070       11.9151525057       26.1287904186
  C        -8.2330201860       10.3087227040       25.2553137647
  H        -2.5084178110       17.3854299193       34.9369024096
  C        -3.2108433616       16.1634474203       36.2553317679
  H         4.4477567044        7.8471508996       10.3195912064
  H         4.7020259002        6.3207042068       11.1514131430
  C         2.7126989120        6.5245336773       10.6804549892
  H         7.5028373989        7.8944923204       30.1899988192
  H         6.0296489330        7.2353399937       29.4719284166
  C         6.4877634761        6.3126549991       31.3314731718
  H        -8.7031244964       10.6023584494       24.3022505956
  H        -8.0042722703        9.2614049511       25.0869780034
  C        -9.1258839624       10.3806034157       26.4820786094
  S        -3.6446531111       14.6829104014       36.9136357890
  C        -3.2254113760       17.3292246433       37.1561935358
  H         2.6506914876        5.4854991901       10.4102520746
  H         2.0147383169        6.6651107524       11.4941753030
  H         2.4793174639        7.1234011619        9.8273264031
  H         6.1828847350        6.6305607485       32.3180897323
  H         7.4497777213        5.8342623791       31.3819869376
  H         5.8527340687        5.4974295055       31.0260740646
  H        -9.5084575032       11.3894684318       26.5635387348
  H        -8.6371098634       10.1446089290       27.3733047113
  H       -10.0011620854        9.8074332434       26.3144012248
  C        -4.1972674974       15.6366615814       38.2452007106
  N        -3.8658216223       16.9242024645       38.2729345786
  O        -2.8357030588       18.4726732934       36.8588446507
  S        -5.1662497701       15.0233680650       39.6183860925
  C        -3.8724484874       17.7236539471       39.5213449478
  H        -3.8417027791       18.7323930079       39.2935718272
  H        -4.7483836879       17.5009149717       40.1445991928
  C        -2.5475074116       17.5798455034       40.4740865601
  H        -2.8411638097       17.1876154058       41.4467386484
  H        -1.7005105546       17.0443289523       40.0871108562
  H        -2.1103593528       18.6144826029       40.6807052900
