352
i=
  H         4.2330506173        3.4461642570       13.0316527733
  C         3.3459384149        2.7401192786       12.8611481424
  H         2.3950923631        3.3342085176       12.8360260440
  C         3.6294828827        1.9941674068       11.5337694662
  C         3.4167845808        1.9055898008       14.0421244250
  C         4.5632581919        2.6101042121       10.4511345219
  H         2.6517071353        1.9503663962       11.0484872556
  H         3.8285246015        0.9396196112       11.6909737774
  H         2.7289477892        1.0730227263       13.9782705221
  H         2.9839541386        2.5067892325       14.8366851561
  H         4.3559904167        1.5184943695       14.3064176997
  C         4.9305887418        1.3727549923        9.5862625092
  H         3.8700584806        3.4214046268       10.0722178986
  H         5.4188003608        2.9970734313       10.9497232665
  C         5.6196804952        1.7596513643        8.2431468300
  H         4.0569137303        0.8084215067        9.3253741921
  H         5.6129673424        0.7162059987       10.1056630694
  C         6.8388423098        2.6293490778        8.4410302097
  H         4.8788282462        2.2098649364        7.5897830514
  H         5.8515488443        0.7727465548        7.7976301486
  C         8.0860785944        1.9644768045        8.9375543378
  H         7.1611019324        2.9669676356        7.4776925818
  H         6.5969797424        3.5544833625        8.8757149592
  C         9.3299847984        2.8865641805        9.0802601928
  H         8.2820351377        1.0854508660        8.3148748514
  H         7.7022463837        1.4676130816        9.8703250093
  C         9.0121763993        4.2461470344        9.8004240520
  C         9.6516682047        3.6500756858        7.7782278111
  C        10.5802677234        2.2039570080        9.7429035528
  C         9.1001105582        5.3675892442        8.9524649961
  C         8.6620860262        4.6424996164       11.1248837483
  C         9.5456116621        5.0248839616        7.7218757419
  C        10.0824227013        3.1137547965        6.6146088796
  H        10.1810418452        1.8055446185       10.6487253051
  H        10.8914244373        1.3030995889        9.1618820389
  C        11.8682815187        3.0949547249        9.9416654903
  S         8.7760247535        6.8608329766        9.7163717055
  C         8.4831761283        6.0124274073       11.1682104376
  H         8.5567307880        3.8769137053       11.9107917096
  C         9.9088666528        5.6766033377        6.5744923782
  H        10.1110841118        2.0136584157        6.5287724992
  C        10.4813931771        3.7171702895        5.5066169419
  H        11.5087988212        4.1216029250       10.0962389168
  H        12.4462335530        3.1770035972        9.0671006867
  C        12.8364508964        2.8990037752       11.1310169211
  C         8.0106595088        6.7006397815       12.4401304424
  C        10.4436407362        5.0940813205        5.4144081656
  H         9.8986223324        6.7385457368        6.5707926337
  C        10.9086430143        3.3068459101        4.2195684330
  H        13.5241851291        3.8112926951       11.1852228679
  H        13.5040670869        2.0242043736       10.9419357308
  C        12.0775615019        2.6945499159       12.4111138040
  C         7.9706113060        8.0853436991       12.6889940964
  C         7.4190631323        5.8701768408       13.4519229363
  C        10.9001531008        5.7451001399        4.1255072019
  C        11.1550360762        4.3627389296        3.4022605403
  S        11.0901156458        1.8301901812        3.4081626296
  H        11.3263133092        3.5168181305       12.5913575512
  H        11.3849763281        1.8755977327       12.3994415416
  C        13.0285115865        2.6390545696       13.6396142380
  N         8.3031092783        9.1226373022       11.7622977337
  C         7.7520491978        8.6058398956       13.9596878155
  C         7.0344520516        6.3604941465       14.6656691407
  H         7.2626538441        4.8104982628       13.3069710566
  C        12.2312124286        6.5565931626        4.1829469736
  C         9.6767435303        6.5600500639        3.5167408184
  C        11.6468602895        4.0151627427        2.1074517122
  C        11.6472618275        2.6691901724        2.0233702037
  H        13.1870600106        3.6874122755       13.8044267773
  H        13.8845103389        2.1272113226       13.2990541032
  C        12.3859021448        2.0575358072       14.8593566597
  S         8.2237150721       10.5876435079       12.5272533446
  N         7.7759123367       10.0160841083       13.9805511060
  C         7.3122260658        7.8332229357       15.0009522461
  H         6.5646974073        5.6625015458       15.3602078049
  H        12.0394475696        7.5843905091        4.4843480440
  H        12.5769273993        6.5974412750        3.0909947320
  C        13.2671100334        5.9063142875        5.0010840501
  H         9.3416679938        7.3617127848        4.1383451350
  H         9.9583694303        6.9860458173        2.5221491972
  C         8.3746387319        5.7112482338        3.2152215624
  H        11.8786493453        4.7910013613        1.4090196677
  C        12.1305918060        1.8740384952        0.8198339218
  H        11.6796517214        2.8177780881       15.1636106393
  H        11.7811182863        1.2023234372       14.7323351962
  C        13.3990052599        1.8872372875       15.9872690243
  C         7.0885153755        8.4474620615       16.2733963831
  H        13.0545313575        5.9606926317        6.0387759306
  H        13.3153926421        4.8023739116        4.7210432708
  C        14.6616864528        6.5063798875        4.8717472877
  H         7.9024516772        5.4092818615        4.1619254003
  H         8.6694125389        4.8457571828        2.6531250311
  C         7.3907107675        6.6151546667        2.4954312875
  C        12.0903573525        0.4896350437        0.6071211037
  C        12.3567235599        2.6185846420       -0.4404549005
  H        14.3893457924        2.3516852318       15.6452684403
  H        13.6906273943        0.8704784131       16.2543525855
  C        13.0694650945        2.5569088924       17.2755136306
  H         7.3486233502        9.4546130676       16.3543869506
  C         6.6831430307        7.9320400353       17.5035903135
  H        14.6595775861        7.4067712836        5.4245252658
  H        14.9183975594        6.8113129228        3.8650564898
  C        15.6794476668        5.5128679287        5.4647225897
  H         7.2119050661        7.4765376992        3.1641589716
  H         7.6303765449        6.9574731952        1.5148488716
  C         6.0820572869        5.8522079574        2.5096624199
  N        11.8394521899       -0.4285990259        1.6951261544
  C        12.3432372244       -0.1435556255       -0.5819399452
  C        12.6295520913        2.0011129782       -1.6804625200
  H        12.3241151798        3.6772983087       -0.3617256689
  H        12.3410565837        1.9067972897       17.7555462488
  H        12.7097065609        3.4818229191       17.1474376166
  H        14.0052601406        2.7510260231       17.9089217990
  S         6.3842549341        6.3688073953       18.0297632382
  C         6.4420924995        8.9930980689       18.5778523572
  H        15.2808637017        4.9632899690        6.3220338283
  H        16.0390398128        4.8584562474        4.7353079210
  C        16.9568266956        6.2579549505        6.0028994927
  H         5.6230769774        6.1102534084        3.4812884072
  H         6.1960046854        4.7602564515        2.5316859240
  C         5.0701340836        6.3009643155        1.4668420248
  S        11.8163052800       -1.9361209092        1.0685064650
  N        12.2500836096       -1.5170089861       -0.4608908331
  C        12.6942087895        0.5250043031       -1.7867523043
  H        12.8086984339        2.5496813275       -2.6021366316
  C         5.9129521080        7.0263854505       19.5236979916
  N         5.9516225602        8.3826775250       19.6549811957
  O         6.6783102011       10.2137256852       18.4450781268
  H        17.6414073214        6.5477700971        5.1774123672
  H        16.7776059910        7.0851274460        6.6523588665
  C        17.7677701800        5.2730397972        6.7765035588
  H         5.6145267379        6.2166521568        0.5120318458
  H         4.3621462699        5.5394102078        1.4896365471
  C         4.4022062464        7.6056465889        1.8737789326
  C        13.0210956893       -0.2041486020       -2.9803540077
  S         5.5576542104        6.0320463926       20.9579161041
  C         5.8334288611        9.1262012758       20.9159774210
  H        17.1330788107        4.8163687622        7.5818156556
  H        17.9643179221        4.4572553873        6.0584789354
  C        18.9207565046        5.8881610115        7.4500909212
  H         4.8351032651        8.0647384074        2.7778687279
  H         3.3750413123        7.4319174645        2.1797111633
  C         4.3039607335        8.5726199553        0.6336790982
  H        12.6150402889       -1.2059834220       -2.9755031943
  C        13.4138138088        0.0784084344       -4.2737707785
  H         4.9372527304        8.8001387880       21.5226423838
  H         5.8404770319       10.1862535834       20.8681060189
  C         7.1828034632        9.1519384451       21.6941301796
  H        19.2115036904        5.2240303067        8.2948601247
  H        18.6303141723        6.8498953104        7.9053154936
  C        20.1292047529        6.1713745250        6.5750455046
  H         5.2769015094        8.8445081166        0.2414423058
  H         3.7110963056        8.2580207375       -0.2151233382
  C         3.6682831852        9.9301225111        1.1188552112
  S        13.9396162963        1.5766134822       -4.9596171424
  C        13.4237121095       -1.1101441782       -5.1918633294
  H         7.8941948058        8.6562000212       21.1078733232
  H         7.0874700720        8.5245673367       22.5518655406
  H         7.5651316656       10.1809373447       21.9029927372
  H        20.4154797024        5.2697860557        6.1869913786
  H        20.0706886279        6.8855337530        5.7697303383
  H        20.9470107586        6.3948852036        7.2713878556
  H         3.5788582462       10.0662771119        2.1787779607
  H         4.1609907602       10.7207875119        0.6168371968
  H         2.6152811242        9.9298012095        0.8892452274
  C        14.1986396773        0.6083999816       -6.3987757566
  N        13.9923854402       -0.7098790657       -6.3003377169
  O        13.1119538454       -2.2715256929       -4.9636661183
  S        14.9401050591        1.2083130609       -7.9185356743
  C        14.0961810763       -1.6192405332       -7.4437234995
  H        14.2372732077       -2.6380084499       -7.0884636103
  H        14.8470725197       -1.3347620367       -8.1784927821
  C        12.7520850749       -1.5789625450       -8.1642534290
  H        12.5812263100       -2.5251388729       -8.7274189190
  H        12.7702424864       -0.7702213550       -8.9431652954
  H        11.9090952427       -1.5094259217       -7.5439418897
  H        -3.3030290192       15.0637665830       16.3032024772
  C        -3.1087935233       13.9782591328       16.2468838191
  H        -3.9933772894       13.4094387827       16.4533509161
  C        -2.0410066477       13.5169443107       17.2251917205
  C        -2.7865620357       13.5980326066       14.8190553731
  C        -2.7069014688       13.6297400166       18.5924992591
  H        -1.8648001930       12.4151175384       16.9397370294
  H        -1.1180135878       14.1653307094       17.0843022365
  H        -1.7548618220       13.5987130392       14.6654557160
  H        -3.1876995259       12.5792291510       14.7127113470
  H        -3.2897976387       14.3511670945       14.1158912920
  C        -1.6606759045       13.5909079642       19.7299695523
  H        -3.3757696087       12.7673717037       18.7424986377
  H        -3.3260822322       14.4660415131       18.5826366688
  C        -2.3422294603       13.7221201132       21.0518333974
  H        -1.0652748407       12.6320245439       19.5441401885
  H        -0.9901112156       14.3793496485       19.5482317442
  C        -1.3962286901       13.0798543919       22.1779531662
  H        -3.2344858900       13.0706668968       20.9570095728
  H        -2.6287446318       14.7406033538       21.3398038508
  C        -0.1760535275       13.9658703074       22.4787830004
  H        -1.9864599995       13.0801186203       23.1633472970
  H        -1.1062985501       12.1219849558       21.8822473937
  C         0.9858474982       13.2079209004       23.1016982909
  H         0.2328736964       14.4893427768       21.5794433839
  H        -0.5131430022       14.8920678060       23.0468226327
  C         1.2729323168       11.8662145504       22.3815330431
  C         0.5224041923       12.4549620889       24.3250464440
  C         2.2815393644       14.0664501865       23.3367031293
  C         1.0226825647       10.7709145478       23.1494115455
  C         1.8112786167       11.4563033574       21.1233559871
  C         0.5882771188       11.1461294228       24.4129173666
  C         0.1034130317       13.0860429663       25.5190038313
  H         2.5522638119       14.6453970483       22.5150068260
  H         2.1477962252       14.7329396013       24.1746394704
  C         3.4691990069       13.2167585083       23.5790333630
  S         1.2759705038        9.1984705650       22.4254524412
  C         1.7837403363       10.1275137378       21.0291518790
  H         2.2288606486       12.1993517155       20.4738394644
  C         0.2775495546       10.4692622429       25.5311127634
  H         0.0048670678       14.1573054495       25.5797813379
  C        -0.2279354393       12.4150423715       26.6511443338
  H         3.6411795526       12.4520111630       22.8092858938
  H         3.2675582798       12.5970659333       24.4284818621
  C         4.6799920019       14.1200484042       23.9488722025
  C         2.3742400662        9.4642688349       19.7975199359
  C        -0.1640543607       11.0523489226       26.7409460743
  H         0.4394760211        9.4417657345       25.6397982403
  C        -0.6090205116       12.8203984201       27.9445904365
  H         5.4098922315       13.5023993551       24.5257281969
  H         4.3757773014       14.7484167988       24.7331956976
  C         5.4193340242       14.8355336357       22.8657547754
  C         2.3294843754        8.0409828289       19.5901384313
  C         2.9156171794       10.2568306451       18.6126072740
  C        -0.5300227740       10.3328346206       27.9801442059
  C        -0.8741201655       11.6804463330       28.6910367703
  S        -0.9721554794       14.2735162423       28.7636071546
  H         6.0740358879       15.4230757959       23.4732317267
  H         4.8133042529       15.6008166626       22.3600369344
  C         6.2930571706       13.9904571833       21.8718072032
  N         2.0189260164        7.0543081606       20.5378886463
  C         2.7127208955        7.4894259191       18.3884284678
  C         3.1498266822        9.7200898675       17.3355843372
  H         3.1163615179       11.2656464506       18.7969144087
  C         0.6444766413        9.5943611902       28.7229068548
  C        -1.7702578917        9.5409027723       27.6340401233
  C        -1.0881455096       11.9763332150       30.0138491741
  C        -1.2503372799       13.3374238098       30.1847262152
  H         7.1659363283       14.5191294600       21.5987656751
  H         6.6498815994       12.9909618208       22.2409220536
  C         5.4170082442       13.6736472854       20.6021884655
  S         2.0415236845        5.5968853893       19.7714394257
  N         2.6686987074        6.1318362898       18.4100320705
  C         3.0731743024        8.2352495304       17.2108434408
  H         3.3726412793       10.3231506777       16.4778864218
  H         0.8893999012        8.7283468307       28.1644106007
  H         0.2251726307        9.1035624494       29.6108471781
  C         1.8876607504       10.4691353289       28.9923041979
  H        -1.5457439584        8.8935580655       26.7877519008
  H        -2.1411018597        9.0666272130       28.4628812991
  C        -2.9461641338       10.4460602984       27.2586859293
  H        -1.1978260082       11.1659080515       30.7372863143
  C        -1.5621634787       14.0542475191       31.4982689288
  H         4.5999468024       14.3261466288       20.6200472666
  H         4.9554464654       12.6951412078       20.7745505373
  C         5.9520116950       13.7316935043       19.1570297293
  C         3.4395762440        7.4968968839       16.0978290833
  H         2.1449548546       10.9806742047       28.1382767634
  H         1.7026118710       11.1633445779       29.7976014341
  C         2.9789374218        9.4933627932       29.5017292090
  H        -2.7133173781       11.0500098775       26.3985570945
  H        -3.2001301577       11.0704037996       28.1136263975
  C        -4.1563840779        9.6471895095       26.9065858910
  C        -1.6571115041       15.4836563282       31.7363641025
  C        -1.9455512064       13.2277016267       32.6707837429
  H         5.4200315457       13.1148995255       18.5121567314
  H         5.9013300160       14.7911943877       18.8167498633
  C         7.4440028605       13.3207518730       19.0857863880
  H         3.0607469667        6.4975375030       16.1204070460
  C         3.7517890416        7.8760070982       14.7962308518
  H         3.2753866453        8.6745615644       28.8270459032
  H         2.6082092955        8.9527798023       30.3607674715
  C         4.1438492022       10.3761289439       29.8822278617
  H        -3.9183592174        8.8116229347       26.2186214653
  H        -4.4813371799        9.1357982336       27.8464840980
  C        -5.2920928940       10.6063170585       26.3416787691
  N        -1.3108683427       16.4630643430       30.7971658423
  C        -1.9759657495       16.0367667783       32.9828712267
  C        -2.2583628792       13.7614483083       33.8751107244
  H        -1.8416447640       12.2001342742       32.6736174824
  H         7.5986611823       12.2930496480       19.3238627955
  H         7.7267066201       13.5560342464       18.0837222253
  H         8.1105955563       13.8447434302       19.7838883436
  S         4.1255520412        9.4826824287       14.1788900618
  C         3.7951917085        6.7901894989       13.8054220752
  H         4.4330954935       10.8955769879       28.9523749327
  H         3.9496708246       11.0258209108       30.6926446429
  C         5.4861714169        9.6404383446       30.1706661899
  H        -4.9421369316       11.1541562310       25.4874375485
  H        -5.4696167249       11.3498316291       27.1037225237
  C        -6.5267677748        9.8773506728       25.7624034145
  S        -1.4278897995       17.9014728466       31.5474472347
  N        -1.9139340479       17.4384327405       33.0491668341
  C        -2.2882517668       15.1970801476       34.1187070605
  H        -2.4987699334       13.0940787515       34.7183485703
  C         4.2984804333        8.6201788096       12.6452400100
  N         4.1938952833        7.2864951196       12.6389411569
  O         3.5459668674        5.5879738201       14.0301396071
  H         6.2087849858       10.4212243346       30.3765551935
  H         5.6628698190        9.2742151774       29.1661306075
  C         5.4267427795        8.5625302463       31.2023328099
  H        -6.1915251713        9.3157178571       24.9376757864
  H        -6.8156849765        9.0790428330       26.3998536415
  C        -7.6664651147       10.7793185582       25.2989083753
  C        -2.5050271801       15.8534132381       35.3666823383
  S         4.9104129791        9.4708622808       11.2379026224
  C         3.9195937471        6.6034247208       11.3820942962
  H         6.1771365179        8.9361173131       31.9537412369
  H         4.4293852368        8.4478475592       31.6878251993
  C         5.7266174047        7.2027826830       30.5833519743
  H        -7.2538234489       11.2333129818       24.3369255137
  H        -8.0466262517       11.6458890286       25.9933242604
  C        -8.8679151713        9.9437330909       24.8166908806
  H        -2.2331304945       16.8475982540       35.4199528444
  C        -3.0452609245       15.4931794305       36.5406914129
  H         4.6628106066        6.8912296245       10.5921014349
  H         4.1186734272        5.5160577097       11.5684488574
  C         2.4563375557        6.7349618585       10.9034336939
  H         6.0288521341        7.2724600809       29.5707412221
  H         4.8355659403        6.6174774809       30.4944815900
  C         6.6552750863        6.4530000131       31.4407402870
  H        -9.3387244675       10.3857217098       23.9780724187
  H        -8.4486468083        8.9481371673       24.5371920144
  C        -9.9281623867        9.8126925509       25.9154822051
  S        -3.7535349502       13.9500786398       36.8947237026
  C        -3.2799303993       16.4710493122       37.5564657789
  H         2.2984289700        7.6577859513       10.3856772388
  H         2.2936598931        5.8928975700       10.2822864377
  H         1.7675185396        6.7354660482       11.6990150738
  H         7.5797082338        6.8985338985       31.2723203061
  H         6.8045602670        5.4367891272       31.0640300962
  H         6.4422107041        6.2792305957       32.4566841320
  H       -10.9688093796        9.6845768387       25.5804506163
  H        -9.8550784218       10.6463257546       26.6690114184
  H        -9.6321791441        9.0513215413       26.6452847384
  C        -4.3043971219       14.7014936586       38.4205449095
  N        -4.0403156025       16.0100849659       38.5736502808
  O        -2.8983535800       17.6281275467       37.4852701444
  S        -5.2001485427       13.8600983805       39.7864620336
  C        -4.2546474835       16.8994055258       39.7557103749
  H        -4.2955364710       17.9482719795       39.4630705104
  H        -5.1301239578       16.6695461130       40.3524064389
  C        -3.0877964974       16.8232761445       40.7016229412
  H        -2.1714062135       16.6300553194       40.1261858544
  H        -2.8823775472       17.8212489000       41.1566455921
  H        -3.2934460566       16.0033811764       41.3569597719
