352
i=
  H         5.2164614536        1.6440703829       12.7847824862
  C         4.5662121221        2.4820708212       13.0920793165
  H         5.1815742053        3.3855755599       13.2058764675
  C         3.5460718928        2.6543047338       12.0192056967
  C         3.9354087959        2.0430694075       14.4254158530
  C         4.1242910030        2.5922209091       10.5711094983
  H         3.1724404070        3.6002163666       12.3550816361
  H         2.7534412721        1.9039739184       12.1623984630
  H         3.8664545740        1.0012123207       14.4637370816
  H         3.0075906567        2.6348975532       14.6766380236
  H         4.7186170990        2.2159359012       15.1580961092
  C         4.6664003422        1.2959875810       10.0572943635
  H         3.3399684492        2.7657872711        9.7695004747
  H         4.8799984144        3.3668474951       10.4386370445
  C         5.3320802666        1.4819305674        8.6871124173
  H         3.7875950568        0.6423195967        9.8814446317
  H         5.3340018246        0.8227912070       10.7213157121
  C         6.5464615921        2.4563707785        8.5700488394
  H         4.5772819347        1.7655493641        7.9667466971
  H         5.6548267068        0.5494536155        8.2317690894
  C         7.8177689104        1.7776926187        9.1401630755
  H         6.6229513102        2.7187747541        7.5465936651
  H         6.3814485001        3.3542467191        9.1031482841
  C         9.0235418075        2.6623931504        9.2104273547
  H         7.9699043785        0.8981388305        8.5671552181
  H         7.6331992245        1.3696756734       10.1412895217
  C         8.7065958680        3.9555345779        9.9544893970
  C         9.4744465516        3.3125708969        7.9921906203
  C        10.1998500285        1.9116625562        9.9506060656
  C         8.8976953670        5.0614469726        9.1580813233
  C         8.1902822256        4.3310688031       11.2206606942
  C         9.3403080959        4.6714969999        7.9043187525
  C         9.9541193829        2.7071742081        6.8404659780
  H         9.9337403682        1.2399930527       10.8000929156
  H        10.6156294238        1.1688358945        9.1860988311
  C        11.3847636041        2.8442929516       10.3545602271
  S         8.5958419646        6.5448440808        9.9475651652
  C         8.1385870991        5.6858446600       11.3637222227
  H         7.9695812739        3.5656029936       11.9520069809
  C         9.8233919588        5.3358093759        6.7952470082
  H         9.9811928693        1.6470164245        6.8736799503
  C        10.2354036867        3.4112576323        5.6411951541
  H        11.0683040468        3.6863743581       10.9419138989
  H        11.8718319682        3.3025428758        9.4646913708
  C        12.4244412479        2.0971255345       11.2057626519
  C         7.6159908280        6.3765120151       12.6180799233
  C        10.2358147399        4.7497578102        5.5691719242
  H         9.9074429482        6.3933029647        6.8489035881
  C        10.7232218940        3.1089922130        4.4344331212
  H        13.3496396242        2.6591392014       11.1469656403
  H        12.7338532221        1.1148899370       10.8707731178
  C        12.1060489717        1.9990483992       12.7236858876
  C         7.5676563665        7.7837881656       12.9406503433
  C         7.2851883448        5.5283079546       13.8016725328
  C        10.7661943525        5.4791295965        4.3528388718
  C        11.0162688102        4.1874786963        3.6466393868
  S        11.0361161016        1.5830167699        3.6858572749
  H        11.5998425076        2.9064823693       13.0615924515
  H        11.5781341620        1.1350403542       12.9936421526
  C        13.3672635113        1.9243596607       13.5683467705
  N         7.7389319735        8.7652101361       11.9719495567
  C         7.4309259295        8.2557149910       14.2732790152
  C         6.9779429027        6.0385416726       15.0536724789
  H         7.3565087691        4.4431189678       13.7840700158
  C        12.0747383392        6.2935871363        4.6295680095
  C         9.6699771073        6.4069471837        3.7764614584
  C        11.4008198473        3.8364137076        2.3428594396
  C        11.5699173425        2.4282914258        2.2162048390
  H        13.8583755669        2.8015698721       13.8107804481
  H        14.0904665385        1.3343007550       13.0417636991
  C        13.1655282850        1.3247649398       14.9571710560
  S         7.8876630148       10.1672445403       12.8304689879
  N         7.7032112418        9.6282593626       14.3629801786
  C         7.0963160695        7.4632488093       15.3813470099
  H         6.6777239142        5.3428312008       15.7948779635
  H        11.8993451279        7.0126611961        5.4503795180
  H        12.3554196097        6.9418455509        3.7651861930
  C        13.2705988701        5.4476849933        5.1602124839
  H         9.4059337373        7.1976776511        4.4139333950
  H        10.0970118552        7.0025621562        2.9868111385
  C         8.5205044965        5.7152153317        3.1673070977
  H        11.5900743738        4.6568164135        1.6992116599
  C        11.9090460032        1.7325436093        0.9651917664
  H        12.5660206518        0.3997968618       15.0363834544
  H        14.1795065493        0.9947530478       15.3276235799
  C        12.4536284736        2.2355165778       15.9122430313
  C         6.8724026765        8.1030069033       16.6585935739
  H        13.0430657605        4.8101064809        6.1183076002
  H        13.6590022967        4.8300685871        4.3690052823
  C        14.5050820889        6.3135654030        5.5362658618
  H         8.1019747683        5.0194619727        3.9478816222
  H         8.9310974357        5.2261248426        2.3010761163
  C         7.4264306355        6.7131274756        2.7367999473
  C        11.9308298966        0.3201700457        0.7993492747
  C        12.3086240679        2.5491082393       -0.1897833529
  H        11.4762130200        2.4797773016       15.6251587831
  H        13.0638562464        3.1032771521       16.0376953074
  C        12.3344856927        1.5267118826       17.2852437305
  H         7.3351146020        9.1388555335       16.7239812408
  C         6.3203711921        7.7330881760       17.8676113501
  H        14.3879166372        6.9372758919        6.3984131258
  H        14.6970685885        7.0006585842        4.6641122992
  C        15.7665500190        5.5707077571        5.7472281986
  H         7.3588715664        7.4377577098        3.5072272809
  H         7.6718478176        7.2802561729        1.8506454312
  C         6.1143021082        5.9186871166        2.5946561142
  N        11.6877044384       -0.6037282994        1.8392420327
  C        12.1209477841       -0.3374867349       -0.3971934965
  C        12.4812538482        1.8594730333       -1.4221388225
  H        12.1413922104        3.6025473980       -0.2271041439
  H        11.4962610923        0.8781343855       17.3833527332
  H        12.2045557731        2.2779002197       18.1256298362
  H        13.1826315286        0.8534500169       17.4503977949
  S         5.9273871839        6.1080960612       18.2964358381
  C         6.3475513290        8.6546506767       19.0388575950
  H        15.9263723508        4.9469339616        4.8485373815
  H        16.6499138705        6.2076993848        5.7315860866
  C        15.9186671578        5.1062204234        7.1853057323
  H         5.8742932124        5.5155666583        3.5821314098
  H         6.3523305788        5.0037018214        2.0912053621
  C         4.9552904504        6.7104105148        2.0003179793
  S        11.6181324618       -2.1444305296        1.2123661017
  N        11.9134043823       -1.7363895571       -0.3300224653
  C        12.4850784732        0.3813089713       -1.5418031315
  H        12.6632048040        2.3500897060       -2.3229767155
  C         5.8132929082        6.6778877044       20.0477164176
  N         5.9902814428        7.9938914931       20.2045902188
  O         6.7829325963        9.7722166120       18.9496655688
  H        16.0537140883        5.9429838458        7.9356104092
  H        14.9789356549        4.4846918700        7.5278558133
  C        17.2292950795        4.3126974305        7.3256164309
  H         5.2234363519        7.0253847413        1.0286340417
  H         4.0523475847        6.0755564679        1.8843475047
  C         4.7620578145        8.0309296524        2.6993197980
  C        12.4960419220       -0.3437717539       -2.7227229042
  S         5.6456656164        5.7881214096       21.4884111243
  C         5.9613030564        8.6271577023       21.5454462762
  H        16.9999246756        3.6465771658        8.1016469741
  H        17.3247920593        3.8036630414        6.4277650583
  C        18.5043723717        5.2119682391        7.5639194673
  H         5.5621097375        8.6476860431        2.5086506893
  H         4.6899532043        8.1191482853        3.6974028690
  C         3.5236181486        8.7360196503        2.1365407820
  H        12.0843230587       -1.3871918869       -2.5640609940
  C        12.9518853793       -0.0878040930       -3.9488689147
  H         5.2364391518        8.2343243347       22.2780537514
  H         5.6892268190        9.6587270499       21.3598878043
  C         7.2958332144        8.6079664221       22.2489975615
  H        18.8962967853        5.0682964264        8.6098062902
  H        18.3563676406        6.2781532345        7.5406469156
  C        19.5376675560        5.0387693799        6.4512264159
  H         3.4985979185        8.3866978557        1.1101077953
  H         2.5685647344        8.5515508143        2.6102510104
  C         3.8846087843       10.1657607690        1.9954646060
  S        13.6675763204        1.3828110005       -4.3947603549
  C        13.1368199168       -1.2145668228       -4.9523626697
  H         7.0853665824        8.6874604990       23.3466155088
  H         7.8351361851        9.4718007778       21.8882833887
  H         7.9760620390        7.7027619997       22.1878707245
  H        19.6820529145        3.9863810649        6.3304714590
  H        19.1854237740        5.5258229798        5.5240870011
  H        20.4616312791        5.4472461188        6.7515835371
  H         4.6185151179       10.5060109802        2.7826609068
  H         4.2752534623       10.4378144213        1.0221259985
  H         3.0229473124       10.8242673197        2.1340284647
  C        14.0484619924        0.6195969836       -5.9453924766
  N        13.7206329156       -0.6996102466       -6.0332078102
  O        12.8919936363       -2.3823414579       -4.7340249134
  S        14.8674965561        1.2697084561       -7.3626433576
  C        13.8344381637       -1.5382691122       -7.2576870746
  H        13.8431829964       -2.5657349397       -6.8744723828
  H        14.6997640357       -1.4618186958       -7.9007164218
  C        12.6356240628       -1.5262294562       -8.1658176315
  H        12.7917120228       -0.9158186306       -9.1209693464
  H        11.8937127702       -1.0764019936       -7.5614035620
  H        12.1870869770       -2.5193083399       -8.4021192733
  H        -2.9977582378       15.4464345480       16.9221059004
  C        -2.6804395311       14.4725714929       16.9422576820
  H        -3.4601100950       13.9165483777       17.4339406472
  C        -1.3743438932       14.4825823770       17.6905268467
  C        -2.4538024444       13.9719371038       15.5084494200
  C        -1.6726180901       14.4223889021       19.2000296684
  H        -0.7054520255       13.7539376189       17.2879348803
  H        -0.8567602430       15.3749187888       17.5026562961
  H        -2.2358823145       12.9154462736       15.4110939248
  H        -3.3667222282       14.0461809335       14.8475108401
  H        -1.7121000201       14.6712605822       15.0289318802
  C        -1.6677129357       13.1304005827       19.9349141480
  H        -2.6396226177       14.9545878028       19.3076589284
  H        -1.1046265339       15.1998475603       19.6715839785
  C        -2.2845524570       13.3481502601       21.3337382995
  H        -2.2766103858       12.5745350939       19.2834960108
  H        -0.6642429964       12.6490925937       19.9906997695
  C        -1.3711065537       12.8528012380       22.4610358511
  H        -3.2132295931       12.7248632940       21.3572620686
  H        -2.5901636401       14.3871587581       21.5843634558
  C        -0.1302552953       13.7215430472       22.6147480195
  H        -1.9085574142       12.8836656785       23.3941042743
  H        -1.0540980399       11.8411644952       22.2759526946
  C         1.1214210434       13.0015927158       23.3263360896
  H         0.1903450429       14.0570968543       21.6130055471
  H        -0.3488634366       14.5908924418       23.2143835472
  C         1.4794404126       11.6711485527       22.6376063494
  C         0.6617436048       12.3813511178       24.6237475200
  C         2.3390673842       13.9691705014       23.5555572095
  C         1.1766452278       10.6237071971       23.4523119288
  C         2.0520477633       11.2471747442       21.4337028874
  C         0.6581959551       11.0437479859       24.7027355785
  C         0.2745943622       13.0750179795       25.7915593306
  H         2.6137016938       14.3716316424       22.6210262143
  H         2.0493262966       14.7464331304       24.1861065652
  C         3.5409042463       13.2364109775       24.2263675814
  S         1.7861445436        9.0594022964       22.9163720990
  C         2.1929319955        9.8754461211       21.3906811165
  H         2.2139291128       11.9572669706       20.6780775207
  C         0.2907626971       10.4854010193       25.9163649415
  H         0.2500722368       14.1504889159       25.6533939601
  C        -0.1085123318       12.4643711786       26.9722967711
  H         3.6723420419       12.2516292344       23.8969481899
  H         3.3256342895       13.1213826371       25.2694509204
  C         4.8937213529       13.8691795107       24.2083469572
  C         2.5991378556        9.2029026289       20.1482776726
  C        -0.1381208613       11.1232922923       27.1171598382
  H         0.4623493564        9.4530386037       26.0048305792
  C        -0.5411621005       12.7920388558       28.2322462696
  H         5.5745406914       13.4009216502       24.9610537744
  H         4.6489193232       14.8664952612       24.5969584907
  C         5.6168342053       13.9371093021       22.8421612457
  C         2.4666368997        7.8455633738       19.8355625526
  C         3.1513932470        9.9929778562       19.0399019157
  C        -0.6781534127       10.4143733270       28.3064568716
  C        -0.9436050177       11.7464667892       29.0106085826
  S        -0.8113550636       14.4151519903       28.9693632320
  H         6.3088012605       14.7579449057       22.9310843294
  H         4.7565484011       14.2455295866       22.2128773649
  C         6.1339894209       12.5735563040       22.4803433443
  N         2.1867970399        6.8459113416       20.7345679379
  C         2.6405640205        7.2778827020       18.5745982422
  C         3.3744996469        9.4758529036       17.7655973898
  H         3.4649496158       10.9930979617       19.3380812508
  C         0.4095749789        9.5562208823       28.9540692549
  C        -1.9615624085        9.7694261307       28.1694986437
  C        -1.5044223615       12.1796373670       30.2108059371
  C        -1.3825248505       13.5522850286       30.3816832523
  H         7.1876797450       12.4717313258       22.8057919108
  H         5.5216086836       11.8146738721       22.8559524181
  C         6.0821052494       12.3937292008       20.9963088145
  S         2.0538281562        5.4421091531       19.9975256320
  N         2.6021297142        5.8553772809       18.5520068776
  C         3.0613823013        8.0460431366       17.4702663804
  H         3.6536570787       10.1859061267       16.9633079429
  H         0.6925678436        8.7289096892       28.2846038290
  H         0.0010622282        8.9175521395       29.7467200058
  C         1.7260768755       10.2515465196       29.4398763896
  H        -1.8102912595        8.9943073370       27.4651837646
  H        -2.2977302868        9.2976877887       29.0989599943
  C        -3.1379168110       10.6180306929       27.6380162592
  H        -1.7166664138       11.4051668477       31.0015948608
  C        -1.6876103302       14.2877279332       31.6641001709
  H         5.1354919792       12.2140615117       20.6090352919
  H         6.6555087388       11.4805441977       20.8813460569
  C         6.7962247264       13.4981573588       20.2809230906
  C         3.1836617879        7.3956292074       16.1778136016
  H         2.3183547464       10.6747460662       28.7156714338
  H         1.3884652006       11.0814345393       30.0131850455
  C         2.5735428295        9.3365320931       30.3360668940
  H        -2.8717944996       11.1865000066       26.7699941383
  H        -3.2258803323       11.4032512904       28.3985818340
  C        -4.3593022569        9.7538919791       27.3867523105
  C        -1.5477824564       15.6873369880       31.8446242017
  C        -2.0515288933       13.5365750100       32.8905140940
  H         6.0279483534       14.2404134684       20.0886576814
  H         7.5358722165       13.9576382749       21.0160545000
  C         7.6029091758       13.2184354637       18.9994063947
  H         2.9930647863        6.2888400687       16.1443018107
  C         3.5469695702        7.8476985240       14.9797184443
  H         2.6917820137        8.3700673054       29.7852783132
  H         2.0950178802        9.0121375906       31.2647902074
  C         4.0018602948        9.8390965724       30.5350942240
  H        -4.1433064419        8.8134691821       26.8397724162
  H        -4.7846581386        9.5377704337       28.3485527554
  C        -5.3763814485       10.6278891889       26.5975622555
  N        -1.2767703828       16.6001391003       30.8724713101
  C        -1.9925101882       16.3379654110       32.9751293334
  C        -2.1898577908       14.1919668429       34.0868093684
  H        -2.0323134703       12.4913940867       32.9395801687
  H         7.6897556787       14.1430995758       18.3855618084
  H         8.6467968333       12.9947633695       19.2797324790
  H         7.0655511074       12.4803036729       18.3682090098
  S         4.1192401207        9.3571603066       14.4525770056
  C         3.5781195794        6.8406087163       13.8277720812
  H         4.1902721168       10.6625375471       29.7855130254
  H         4.2429364695       10.1526104237       31.5494352712
  C         5.1337730947        8.8154795577       30.1292535356
  H        -4.9150976038       10.9946667608       25.6759896978
  H        -5.6022225770       11.3931596045       27.2466609056
  C        -6.6308294837        9.8556641801       26.0807726360
  S        -1.4933662106       18.0935458013       31.4190358189
  N        -1.8708114015       17.7211277635       32.9671756866
  C        -2.2494711898       15.6511742190       34.2380043930
  H        -2.4730693684       13.5711868467       34.8742374039
  C         4.2348864691        8.7219808647       12.8113918814
  N         4.0910829010        7.4023412564       12.6625224040
  O         3.2243610505        5.6852476524       13.9024227788
  H         6.0987565530        9.3956159180       30.0096112958
  H         4.9990391696        8.3603342743       29.1343081500
  C         5.3455126521        7.7091290783       31.1671776898
  H        -6.2815048884        9.3637833894       25.2841263898
  H        -7.0499302523        9.1869877265       26.7551258257
  C        -7.7231021677       10.7629575300       25.5244536764
  C        -2.5304095404       16.4404213949       35.4292060817
  S         4.4573799237        9.7099106759       11.4158414614
  C         3.9930995149        6.6939546632       11.3513955909
  H         6.0196365526        7.9874088519       32.0122115693
  H         4.3667839393        7.5389685098       31.6782107442
  C         5.8213405721        6.3388723473       30.5993707979
  H        -7.2066044912       11.4862383094       24.8326384208
  H        -8.2190134127       11.2420784663       26.3992300677
  C        -8.8103560998       10.0583286834       24.7602404346
  H        -2.3349921512       17.5137427895       35.3643093587
  C        -3.1692728380       16.1434999699       36.5909654633
  H         4.6698473156        7.0507794279       10.5889612642
  H         4.1939464653        5.6955737119       11.4027982848
  C         2.6093528931        6.9662597266       10.8059948973
  H         6.7733238342        6.5449605538       30.0853378619
  H         5.0805351066        5.9750666653       29.8719397447
  C         5.8566964329        5.2874873523       31.6383216781
  H        -9.0894578003       10.6852918178       23.9207399406
  H        -8.4983440374        9.1880176473       24.2427994251
  C       -10.0873201856        9.8317828841       25.5966725049
  S        -3.8938709161       14.6749411265       37.1155346889
  C        -3.1371917575       17.1550316780       37.6547073023
  H         2.5679367472        6.7146277141        9.6956445326
  H         1.8420536444        6.3576936721       11.2902545194
  H         2.2007174715        7.9172390734       10.9325622561
  H         6.5413965931        4.5572203947       31.2207086216
  H         4.9479200136        4.6580905796       31.5251571848
  H         6.1354507473        5.5653788423       32.6748961242
  H        -9.6451409044        9.3640060116       26.4669095287
  H       -10.8138237101        9.1530463668       25.1328701518
  H       -10.5956223309       10.7566216904       25.9108785359
  C        -4.1865511762       15.4221185736       38.6613788566
  N        -3.8737903058       16.6835586000       38.7438974662
  O        -2.6069294748       18.2566745306       37.6493331404
  S        -4.6912979763       14.4289714966       40.0464188262
  C        -3.8454408002       17.4326507445       39.9468631755
  H        -3.8628699818       18.5041021577       39.6479358236
  H        -4.7476815067       17.2826385677       40.5240885463
  C        -2.6132050774       17.0400985608       40.7186759224
  H        -2.8402508586       16.1529480867       41.3217456471
  H        -1.7741825888       16.7820041225       40.0607871082
  H        -2.1900845950       17.8286573443       41.3026201718
