352
i=
  H         3.8151621749        1.0097535398       13.8890788477
  C         4.2570492844        1.8908790306       13.5544009948
  H         5.2493334184        1.6535581624       13.2121208421
  C         3.4507238089        2.3855006318       12.3504144876
  C         4.4262114090        2.7708071366       14.7880466338
  C         4.4264595142        2.5776096818       11.1629073992
  H         2.9551711762        3.3077690160       12.5638068915
  H         2.6580414985        1.7214063738       12.0406372127
  H         3.6245466688        3.3685706005       15.0949198178
  H         5.1066317214        3.5502745617       14.5553344953
  H         4.6180585573        2.2996796743       15.6873717410
  C         4.6664066129        1.2892654389       10.4404715590
  H         4.0808450074        3.2919758191       10.4582711289
  H         5.3818061936        3.0477736430       11.4965263347
  C         5.2301507139        1.5670618381        9.0323688554
  H         3.7673793377        0.7242189012       10.4005858565
  H         5.3797046452        0.7215046492       11.0623089975
  C         6.5338362554        2.4215373414        9.0651044276
  H         4.4413342848        2.0953933202        8.5031708578
  H         5.3619807027        0.6617994751        8.4418621127
  C         7.9179144067        1.7218983794        9.4262358074
  H         6.6407553757        2.7414363640        8.0605694661
  H         6.4377573100        3.3792643956        9.5853344658
  C         9.1445668899        2.6865731184        9.5486725881
  H         8.1913179234        0.8379806115        8.8412495871
  H         7.7207762991        1.2888677441       10.4058111869
  C         8.7076758934        4.0299332039       10.2316234855
  C         9.3588669533        3.3445779830        8.2352098039
  C        10.4550286565        2.0456845059       10.2719217768
  C         8.7394166705        5.1328325463        9.3441356402
  C         8.2232433375        4.4115508553       11.4781176829
  C         9.2743380478        4.7255194635        8.0907415221
  C         9.8758452843        2.6940780445        7.1855907089
  H        10.2123853849        1.1998460016       10.8376961160
  H        11.0770641262        1.6673851837        9.4301080390
  C        11.4136188809        2.9906276041       11.0134249062
  S         8.4132700677        6.5935280159       10.0488337831
  C         8.0465699660        5.7524181876       11.5265685141
  H         8.0966909587        3.7386426790       12.3045613980
  C         9.6545766988        5.3425677134        6.9476485588
  H        10.1020522751        1.6271418509        7.3806237775
  C        10.1626248772        3.2614304091        5.9550583270
  H        11.0658072637        3.6177796798       11.7670373938
  H        11.8360348065        3.6624996395       10.2188140208
  C        12.5911695181        2.2192633467       11.5512786500
  C         7.6467575449        6.4186504708       12.8286488628
  C        10.1934576137        4.6213581497        5.8424953256
  H         9.5782651252        6.4371836473        6.9086861122
  C        10.7340517078        2.8196675888        4.7460750749
  H        13.4159026060        2.1578777933       10.8393014019
  H        12.3505593169        1.2332064019       11.9451288260
  C        13.1919376268        2.8990086478       12.8076880639
  C         7.5875311627        7.8232188429       13.0269401929
  C         7.2509757690        5.5460944187       14.0200841543
  C        10.6868869345        5.1851608900        4.5673257408
  C        10.9860150726        3.8517753846        3.9075489695
  S        11.1735090459        1.3116213504        4.0047753896
  H        13.9042853846        3.6340231183       12.3667309010
  H        12.4824404304        3.6001238000       13.2403879863
  C        13.7238498345        1.9037154242       13.8065339476
  N         7.9894735714        8.8145546072       12.1209052171
  C         7.2099402551        8.3323932422       14.2444989524
  C         6.9302934788        6.0141504335       15.2611149076
  H         7.3314057110        4.5138827474       13.9287462723
  C        12.0299168603        6.0117899969        4.6798981659
  C         9.4740529244        5.8744885767        3.8841429340
  C        11.4463129556        3.4472127756        2.6383963871
  C        11.6267714031        2.1440447444        2.5685777846
  H        14.3116359769        2.4920254832       14.5006230781
  H        14.4177378098        1.2289312136       13.3002625510
  C        12.7279127591        1.1111853707       14.6742031553
  S         7.8267361818       10.3020380415       12.8688738115
  N         7.3955174858        9.7469810885       14.3185578861
  C         6.8634180388        7.5058688921       15.3992843670
  H         6.6614157496        5.3319624032       16.0842680028
  H        11.9479647020        6.9695442376        5.1795594606
  H        12.3701639561        6.3615062163        3.6747323773
  C        13.2745994890        5.1813196420        5.2152976707
  H         9.1685649231        6.8052067406        4.3253154876
  H         9.8678476901        6.0328966213        2.9009192634
  C         8.2273646290        5.0471031804        3.6817596328
  H        11.6172167021        4.2100044306        1.8969566693
  C        11.9829522851        1.4439584740        1.2745141034
  H        11.9316775670        0.7924948918       14.0246430717
  H        13.0821229288        0.2664677007       15.2623065123
  C        12.1151786972        2.0963150681       15.7318983741
  C         6.5628456974        8.1780064385       16.6255402461
  H        13.0987592137        4.6513615806        6.0977285878
  H        13.5887571566        4.3986142409        4.5072046488
  C        14.4976773679        6.0943977438        5.3144194663
  H         7.6702952628        5.0472406782        4.6732125596
  H         8.4568596375        4.0207642608        3.6153941779
  C         7.2070108666        5.4191606585        2.6161158267
  C        12.0171249584        0.0637161460        1.0390578397
  C        12.1182155979        2.2856109415        0.0080463736
  H        11.1016787126        2.5190526789       15.4631473927
  H        12.6928475501        3.0186024128       15.9646437979
  C        11.9094015291        1.1877226544       17.0040302371
  H         6.4643900528        9.2785282883       16.5319882768
  C         6.3323380931        7.8614805376       17.9171026135
  H        14.0967190857        6.9392083895        5.8412249127
  H        14.8798593639        6.5034624885        4.3566017787
  C        15.6043349006        5.3667823489        6.0848803448
  H         7.7758295722        6.0049975214        1.8778781911
  H         6.8759458526        4.5781282732        2.1300405485
  C         6.0585828575        6.1927355627        3.2271667931
  N        11.8046970116       -0.9522589618        2.0429804261
  C        12.2972877659       -0.5261150159       -0.2273266309
  C        12.4832302743        1.6839081465       -1.2393590544
  H        12.2310489582        3.3543050939        0.0925532501
  H        11.3906717908        1.8414123076       17.9064145981
  H        12.8147542362        0.6959883405       17.2598543216
  H        11.1057032893        0.5000690294       16.8012990352
  S         5.9948265094        6.2837503961       18.5464462948
  C         6.2335194781        8.9699899208       18.8589384435
  H        15.3490224858        5.2249837735        7.1507057181
  H        15.7421697390        4.4785850111        5.5597487958
  C        17.0544497664        5.8932822501        6.0272546736
  H         6.4283639351        7.0407508343        3.9415396569
  H         5.3853498912        5.5507316822        3.8127499440
  C         5.2380328595        6.9009738993        2.2047593124
  S        11.8819794348       -2.3881201747        1.2836162222
  N        12.3799220752       -1.8693500588       -0.1990984599
  C        12.5635042063        0.2495120944       -1.4052268203
  H        12.7674242396        2.3456030824       -2.1129107034
  C         6.0800403548        7.1359217857       20.1214083168
  N         6.0344865249        8.4797102331       20.0841273551
  O         6.1467689670       10.2168764016       18.6332904886
  H        17.4806965198        5.8840086376        5.0117445145
  H        17.0164819183        6.9195794112        6.3628290579
  C        17.9963264527        5.1224527026        6.9699784533
  H         5.9306812489        7.3658376396        1.5473209314
  H         4.9680887308        6.0949567363        1.6231113609
  C         4.0697273566        7.7445632347        2.7399435555
  C        12.8513635499       -0.4469992577       -2.6149478589
  S         5.4060904946        6.4300584350       21.6278545962
  C         6.1904656112        9.4323189430       21.2062566986
  H        17.5895480461        4.9024439051        7.9719617682
  H        18.2213345926        4.2025577965        6.4306222106
  C        19.2487694511        5.8981370464        7.3244340602
  H         3.8966551428        7.6346246474        3.8023170341
  H         3.1639193390        7.3097713962        2.4171946147
  C         4.2232541329        9.1965038702        2.3745494230
  H        12.5114538507       -1.4057675029       -2.5844946829
  C        13.4286374289       -0.1047140928       -3.7948321965
  H         5.6497717723        9.0750204293       22.0714667447
  H         5.7846934841       10.4056880760       21.0113935509
  C         7.6443894895        9.5795805212       21.6458396782
  H        19.8414582489        5.4452737336        8.0375778183
  H        19.0312692353        6.8403984137        7.7943665850
  C        20.0968111569        6.0098082715        6.0262045364
  H         3.4868721078        9.7379600844        3.0170119474
  H         5.1847223634        9.5325148168        2.4853223695
  C         3.9192798138        9.3721463023        0.8697933770
  S        14.1375260914        1.3858425207       -4.2594587283
  C        13.5462214441       -1.1400916687       -4.8451561269
  H         8.1386234871        8.6267620911       21.8682532719
  H         7.6817550414       10.0249633150       22.6693628153
  H         8.2866616780       10.1966774284       21.0341116447
  H        20.0033333784        5.1062418373        5.3201971150
  H        19.9230713946        6.9486362166        5.4495679610
  H        21.0859252053        6.0021233408        6.2250495912
  H         4.0386439493       10.4705797550        0.6343972219
  H         4.6218364472        8.8747273036        0.2180311221
  H         2.9442818638        9.0060341330        0.5929605064
  C        14.2906306724        0.6722875544       -5.8689553364
  N        14.1603349047       -0.6803385741       -5.9274399410
  O        13.1179165876       -2.3163102254       -4.7194437168
  S        15.0075978053        1.5170693702       -7.2150707695
  C        14.2904597552       -1.5790365427       -7.0699116114
  H        14.4380735429       -2.6234066162       -6.7082750839
  H        15.0913647707       -1.2211685646       -7.6126930241
  C        12.9730975302       -1.6594639135       -7.8512995643
  H        12.0210142289       -1.5591458607       -7.2852503860
  H        12.7618468539       -2.6804072261       -8.2703704946
  H        13.0462698649       -0.8582561318       -8.6541615956
  H        -3.1720020420       14.8250853680       16.5432288097
  C        -3.0247947651       13.7897392086       16.5654511846
  H        -3.9957845503       13.3602763128       16.7527560968
  C        -1.9469185238       13.3938444125       17.5384394122
  C        -2.6776838126       13.3554327374       15.1471666688
  C        -2.4729793645       13.7131943911       18.9630902327
  H        -1.7179984312       12.3599529855       17.3307104731
  H        -1.0104364132       14.0317183967       17.3771894892
  H        -3.3984007513       13.8160468347       14.4701103750
  H        -1.7764480795       13.8435914245       14.8691675885
  H        -2.6753083309       12.2182108879       15.0817044011
  C        -1.7311063094       12.9001780630       20.0295712755
  H        -3.4838615905       13.4428382554       19.0109307825
  H        -2.3373779096       14.7099051691       19.1330087543
  C        -2.3302990820       13.0963529831       21.4112910601
  H        -1.7096923101       11.8265281870       19.8508268055
  H        -0.6699417643       13.2205548572       20.0689273039
  C        -1.4307194082       12.5846993998       22.5453048959
  H        -3.1944089601       12.4538186571       21.5775553077
  H        -2.6367948383       14.1682129764       21.6584778447
  C        -0.3062972165       13.6217806182       22.9239963973
  H        -1.9706578633       12.3572991189       23.4976783731
  H        -1.0125825923       11.6744369371       22.2058091234
  C         0.9238793796       13.0303449446       23.7090702318
  H         0.1178195985       14.0865777776       22.0181686111
  H        -0.5990643729       14.4366189060       23.6037297326
  C         1.3824552303       11.6635655051       23.0383971585
  C         0.5511453495       12.2958317659       24.9671549811
  C         2.1108117667       14.0552173979       23.8336301229
  C         1.1698630934       10.5288685024       23.8591053983
  C         1.7472835321       11.2988544542       21.7624488403
  C         0.6555436853       10.9333046883       25.0715055530
  C         0.0891633432       12.8854455232       26.1322998922
  H         2.2657671382       14.6777925326       22.9744202372
  H         1.7599189300       14.7595727466       24.5750004003
  C         3.3578070827       13.3076843087       24.2864663523
  S         1.5312043897        9.0326850143       23.0842634094
  C         1.9417619311        9.9497037491       21.6875638426
  H         1.8372632269       12.0318977659       20.9703903895
  C         0.2336583694       10.2599938658       26.1742370720
  H         0.0779284910       13.9351694939       26.1656832003
  C        -0.2365751942       12.2732730126       27.2201433704
  H         3.6353081114       12.5122169505       23.4977584727
  H         3.2072670278       12.8342534155       25.2148845211
  C         4.6484473815       14.1163550891       24.4222635035
  C         2.4965919707        9.3023786373       20.5153270042
  C        -0.1752211676       10.8935185631       27.3458342542
  H         0.2897379409        9.1069360709       26.1842936823
  C        -0.5763867153       12.7131454640       28.4635359627
  H         5.4290055187       13.4916478094       24.9434389690
  H         4.5449347499       15.0099891583       25.1008322088
  C         5.1893094955       14.5860474545       23.1005757251
  C         2.4482793597        7.9184338470       20.2015345357
  C         2.9620930436       10.0734244233       19.3715309866
  C        -0.4684530740       10.1976495072       28.6835303671
  C        -0.7066550177       11.5631510580       29.2968710951
  S        -0.8941119740       14.1621301434       29.2639129975
  H         5.8568173192       15.3719091312       23.4321472721
  H         4.4601231377       15.0883717275       22.4964728977
  C         6.0546270487       13.5575693598       22.1866102543
  N         1.9819953474        6.9919388364       21.0731830037
  C         2.7210499311        7.3351422803       18.9922428352
  C         3.2935317600        9.5455559450       18.1732332726
  H         3.4160249147       11.0394903250       19.5213976959
  C         0.6809535283        9.5194502096       29.2796786590
  C        -1.7315105776        9.3158892427       28.3270050476
  C        -1.1526667326       11.9772270451       30.5443363346
  C        -1.2217453249       13.3322268297       30.6768674689
  H         7.1658606067       13.6987789778       22.3807787801
  H         5.8319491061       12.4928986613       22.4399717895
  C         5.8335028895       13.7451581528       20.6703794983
  S         1.9891376658        5.5277658606       20.3992962403
  N         2.4125709490        6.0173316243       18.9387452672
  C         3.0422252755        8.0523458043       17.8572179073
  H         3.5283726709       10.3106374012       17.4109681136
  H         0.9609162210        8.9559065180       28.4024981360
  H         0.4062669319        8.7774899816       29.9423928443
  C         1.8874860318       10.2874387629       29.7640455937
  H        -1.4624054796        8.5270945347       27.6396705431
  H        -2.0721755452        8.8078004759       29.1985226244
  C        -2.9471623748       10.1322385670       27.7324437089
  H        -1.4104647323       11.3001022899       31.3217539371
  C        -1.5323358829       14.0617170497       31.9451910288
  H         5.6639424722       14.7994667382       20.4216691803
  H         4.8955073886       13.1857371615       20.3524917077
  C         6.9737447889       13.1217634576       19.7953634459
  C         3.1071086423        7.3627130111       16.5575310749
  H         2.1479556468       10.9596911890       28.8928301708
  H         1.5097958667       10.8145567907       30.5965538416
  C         2.9690838331        9.3465394971       30.1865154933
  H        -2.6959476000       10.6021582825       26.7686133728
  H        -3.1156898879       10.9194773757       28.4322152933
  C        -4.3071999319        9.4502083069       27.6805982128
  C        -1.6150437562       15.4292223529       32.1525836811
  C        -1.7357600135       13.2270051095       33.1627653097
  H         7.8591277007       13.6558324313       20.0450311785
  H         7.1872643779       11.9991612529       20.0672777435
  C         6.6318101486       13.2797267023       18.3002155630
  H         3.0310665180        6.3192812866       16.6078873395
  C         3.4492704483        7.8158650760       15.2954872999
  H         3.2743442787        8.6516927996       29.3531302687
  H         2.5748846752        8.7766191592       31.0143106318
  C         4.1128991672       10.0703295776       30.9218634823
  H        -4.2785191220        8.5199131207       27.0526193210
  H        -4.4430181201        9.1059291238       28.6890556243
  C        -5.2997087694       10.4458444375       27.1865654862
  N        -1.4168577424       16.3941586542       31.1327134658
  C        -2.0256227232       16.0191126693       33.3518495815
  C        -2.0872320261       13.8158994970       34.3823485923
  H        -1.6710687334       12.1583778689       33.0559670488
  H         6.6846744824       14.2519328106       17.9013798959
  H         7.2965420434       12.6627121100       17.6953062389
  H         5.6121832985       12.8612520836       18.0513262550
  S         3.9406156334        9.4306552782       14.9611875150
  C         3.5400674283        6.8082454329       14.1766816614
  H         4.3741629093       10.9787169709       30.4285032132
  H         3.6740669164       10.3806651323       31.8509749206
  C         5.3410835381        9.2522366315       31.2177694836
  H        -4.7196615187       11.1780925924       26.6678846362
  H        -5.7185693567       10.9312736683       27.9909575319
  C        -6.3074082968        9.6608458489       26.3853870922
  S        -1.5641656784       17.8983315171       31.8022133519
  N        -2.0571104594       17.4000806210       33.3192905859
  C        -2.3344976328       15.2997043186       34.5068457017
  H        -2.1009814439       13.1663666312       35.2062531412
  C         4.0515616929        8.7757191866       13.3143232050
  N         3.9600077972        7.4269005154       13.0848842246
  O         3.3074011910        5.5992755196       14.3545879543
  H         5.8899047718        9.8495967738       31.9621802071
  H         5.9650754349        9.2564691508       30.3348150378
  C         4.9959527781        7.9281816596       31.8068600358
  H        -5.7537110048        8.9677432547       25.7725096527
  H        -6.9348776930        9.1374918733       27.1138168468
  C        -7.1166946268       10.5781902431       25.5115269458
  C        -2.5857147711       15.9330832386       35.7908714933
  S         4.5170790886        9.7623917817       11.8780905855
  C         3.9345852852        6.6472656188       11.7751893760
  H         5.5586084283        7.6640271827       32.7049348095
  H         3.9976139939        7.8670305661       32.1618417018
  C         5.2743291792        6.8018066001       30.8333031210
  H        -6.5702008574       10.5703342269       24.5562017148
  H        -7.3451221219       11.5368218499       26.0440488020
  C        -8.4399953458        9.9037340397       25.2584632603
  H        -2.2425003060       16.9588478339       35.8688927293
  C        -3.0852694625       15.5371841153       36.9720190458
  H         4.5976312936        6.9858768977       10.9702260571
  H         4.0320207987        5.5784638649       12.0438017058
  C         2.4959634681        6.7802397358       11.1804880267
  H         5.1636811945        7.0500892756       29.7966066107
  H         4.6728946591        5.8958347508       30.9271502900
  C         6.7482979646        6.2821337142       31.0746170737
  H        -8.9102145102       10.3454540278       24.3861633430
  H        -8.2478015635        8.7852410371       25.1181402479
  C        -9.5196597858       10.0959911948       26.2615472723
  S        -3.6754272127       13.9376233036       37.4489614163
  C        -3.1328715687       16.5730912682       38.0349405351
  H         1.6334804632        6.6330145429       11.8126489142
  H         2.3265480864        7.6855206540       10.6291531962
  H         2.4974220508        5.9608793621       10.4981103055
  H         6.5827728911        5.3127287384       31.5399836018
  H         7.4239715254        6.9891522360       31.5980583470
  H         7.2391871682        6.0114387814       30.1140615865
  H        -9.9675966006       11.0250999180       26.4187701264
  H        -9.2111175042        9.8003817271       27.2149330342
  H       -10.3352888691        9.4021941936       25.9656296841
  C        -3.9377242392       14.6878480736       39.0083399590
  N        -3.7160182699       15.9936517302       39.1210238255
  O        -2.6456399648       17.7079234755       37.9741777673
  S        -4.5847665986       13.8363606221       40.4279939708
  C        -3.8582411907       16.7517924817       40.3369396705
  H        -4.3940664086       17.6285250169       39.9983039021
  H        -4.5037392318       16.3059008514       41.0801155014
  C        -2.4562169309       16.9485754695       40.9971065127
  H        -2.3455200777       18.0221588693       41.2249074655
  H        -2.2754690121       16.4622333647       42.0216875666
  H        -1.6100776251       16.7892802546       40.3647859781
