352
i=
  H         2.5396498241        1.3059559978       12.9808929943
  C         3.4468462066        1.9092908983       12.7528966775
  H         4.2871298788        1.2760866095       12.5557285973
  C         3.2007151250        2.9229856289       11.5786417721
  C         3.7725425496        2.7040120275       14.0520027700
  C         4.2308993022        2.9075093533       10.4137625959
  H         3.1075628017        3.9139433296       12.0625612344
  H         2.2405842940        2.6978076862       11.2444387566
  H         4.2369642081        1.9698242270       14.7053116554
  H         2.9268760840        3.2657591479       14.4435599632
  H         4.5331927174        3.4319623072       13.9379547484
  C         4.5684273074        1.6130353434        9.7372361805
  H         3.7391128300        3.5239957685        9.6216340952
  H         5.1362517164        3.5160011207       10.7134234153
  C         5.3003251463        1.8335421854        8.4203968574
  H         3.6766649207        1.0417576594        9.5634432581
  H         5.1326166636        0.9262390062       10.3758098476
  C         6.6448529732        2.6626062110        8.5558572154
  H         4.6759348891        2.3726821741        7.7664029847
  H         5.4795571827        0.9045876781        7.9035520938
  C         7.8447841228        1.8798170527        9.2225852844
  H         6.8690310879        2.8267626712        7.5140223273
  H         6.5109242203        3.6632642735        8.8259314781
  C         9.1307338031        2.7711090679        9.2977757600
  H         8.0419839126        1.0340815502        8.5777119875
  H         7.5950654130        1.5094688169       10.1687544326
  C         8.7363253476        4.0892912670        9.9133605517
  C         9.5692210928        3.4206141731        8.0060938619
  C        10.2016975854        2.0219629619       10.0950015260
  C         9.0516210631        5.2299251098        9.1468149111
  C         8.3056695669        4.4121247075       11.1798170577
  C         9.4620322317        4.8057130870        7.8744692952
  C        10.0249099375        2.7389598919        6.8425026710
  H         9.7006994442        1.5768676843       10.9752174058
  H        10.5148334291        1.1206158994        9.5627542640
  C        11.3694849867        2.9879373099       10.5335559581
  S         8.7203377169        6.7014402728        9.9631643848
  C         8.0900473578        5.7596965991       11.2842236467
  H         8.1142001275        3.6109565206       11.8340162417
  C         9.8097686687        5.3487948769        6.7149603566
  H        10.1365789140        1.6649358503        6.8694142792
  C        10.2658325867        3.3863056785        5.6312155864
  H        11.0158242233        3.8059432406       11.1288769512
  H        11.8951880219        3.4732420264        9.6893607760
  C        12.3032180019        2.2612326270       11.5251410571
  C         7.6174197399        6.4755409099       12.5081347566
  C        10.2952072609        4.7447715573        5.5495551102
  H         9.8245605759        6.4202596411        6.6498458080
  C        10.8314110687        3.0474041557        4.4168540953
  H        13.2938099951        2.7556106637       11.4020570050
  H        12.3766473993        1.2327625871       11.1386715621
  C        11.8290338595        2.3914754527       13.0139229812
  C         7.7607919862        7.8316486716       12.8555824929
  C         7.0213648837        5.6074420251       13.5637496726
  C        10.8592559825        5.4544243453        4.3693039631
  C        11.1335121927        4.1388306318        3.6734094195
  S        11.1988733575        1.5114398030        3.6382130590
  H        11.8693037584        3.4563567161       13.3356156411
  H        10.8407771962        1.9533051959       13.1298864300
  C        12.8282565533        1.6246294310       13.9667782111
  N         8.1249382160        8.8419941615       11.9774895682
  C         7.4613114078        8.3588013063       14.0671946605
  C         6.7485046198        6.1577541345       14.8264696760
  H         6.6120171853        4.5995841199       13.3017010405
  C        12.1821370185        6.1775602860        4.7018185478
  C         9.8719170330        6.3006427017        3.5529657193
  C        11.7105664593        3.8180811241        2.4012564420
  C        11.7158848557        2.3924832452        2.1845047141
  H        13.5943359951        2.3865269716       14.2467579860
  H        13.4432951454        0.8795829671       13.4709754061
  C        12.1231633823        1.1280371125       15.1876268202
  S         8.1440083416       10.2638709393       12.7687541870
  N         7.6320222984        9.6833862507       14.2128343867
  C         7.0168019057        7.6062670036       15.1471215167
  H         6.1654091036        5.5407657282       15.5154127203
  H        11.8918477154        6.9703862489        5.3260330508
  H        12.5675703167        6.7685195076        3.8670978785
  C        13.3848882296        5.4153387284        5.1154527618
  H         9.4538159246        7.0833518377        4.1951689597
  H        10.3659184997        6.8636115790        2.7525929577
  C         8.6752143963        5.5510216732        2.8894773944
  H        12.1161494830        4.5023687976        1.7079839704
  C        12.0184629455        1.7692528636        0.8462055824
  H        11.1934475561        0.6199831286       14.9792710889
  H        12.7990644991        0.4053743427       15.6789919074
  C        11.8201308088        2.2134250268       16.2302303112
  C         6.8362257003        8.2357152166       16.4091647413
  H        13.2211241283        5.0308095223        6.0774470198
  H        13.5041234345        4.5677902971        4.4229841325
  C        14.6802453382        6.2310846127        5.1278462869
  H         8.2124110230        4.8923799059        3.6135975386
  H         9.0333763897        4.9057880465        2.1067742309
  C         7.7019552385        6.5966508661        2.4170299734
  C        12.0327985938        0.3814361730        0.6067032045
  C        12.1369275994        2.6155291984       -0.3650888514
  H        10.9656691069        1.8628054528       16.7884463352
  H        11.3892670883        3.1343640175       15.8250931537
  C        12.9256247646        2.6797958769       17.1742099517
  H         7.1142272633        9.2640965386       16.4598826510
  C         6.5530015730        7.7360622141       17.6195286901
  H        14.7634462506        7.0879239115        5.8424557875
  H        14.6721192304        6.8119533770        4.2330383405
  C        15.8590415887        5.2732567548        5.1677245175
  H         7.5207029694        7.3249925240        3.2020903555
  H         8.1346736065        7.1426571980        1.6357353543
  C         6.2879917935        6.0208899756        2.1923622676
  N        11.7093114523       -0.6436427751        1.5145668232
  C        12.3257968332       -0.1830881844       -0.6728121125
  C        12.5019984582        2.0245226007       -1.5659093105
  H        12.1219717658        3.6790301136       -0.2926785684
  H        13.6387032907        3.4067820834       16.5390508172
  H        13.4633077868        1.8061342929       17.6036943096
  H        12.5044972834        3.2754346133       17.9840225598
  S         6.3509332645        6.0832156004       18.0634576197
  C         6.4859056914        8.6668430117       18.7944553456
  H        15.6727496046        4.5496236904        5.8894073576
  H        15.9865633369        4.6791695934        4.2439711985
  C        17.1349686903        6.0501495904        5.4488209961
  H         5.7276312565        6.1201462470        3.1498032978
  H         6.3342747348        4.9197423019        1.9662519912
  C         5.5503782049        6.8574274757        1.1765075185
  S        11.8499212260       -2.0699999590        0.8093948395
  N        12.3236947463       -1.5415853417       -0.6511221245
  C        12.5761725190        0.5971385086       -1.8204986478
  H        12.6962221179        2.6729412922       -2.4219001853
  C         6.1680673406        6.6067086821       19.7308320750
  N         6.1326384663        7.9724642204       19.9076068316
  O         6.6675436925        9.8817379729       18.6925771070
  H        17.8465229175        5.7441531572        4.6940268500
  H        16.9815327227        7.1470799104        5.3405727368
  C        17.6346841111        5.8335146540        6.8507416186
  H         6.0343586706        6.7446584854        0.1974509068
  H         4.5467155688        6.4401084522        1.2506572834
  C         5.4791224034        8.3407833218        1.5061745327
  C        12.8510670205       -0.0917472573       -3.0412782297
  S         5.8090423858        5.5608674053       21.1501623227
  C         6.0259178558        8.6615160882       21.1681931694
  H        16.7883395158        6.0854838188        7.4987025459
  H        17.7413153353        4.7474534927        6.9707582671
  C        18.8823476279        6.5730739323        7.1747725910
  H         6.4324652008        8.7940809677        1.3127322270
  H         5.1930137265        8.4875008411        2.5146282434
  C         4.4515766942        9.0959020804        0.5724475443
  H        12.5191177005       -1.1194033448       -3.0135762705
  C        13.4559816709        0.2787613591       -4.2374835766
  H         5.3291375816        8.3237910998       21.8737419394
  H         5.6872584254        9.7402426697       20.9084134877
  C         7.4544697405        8.7666439427       21.8188923281
  H        19.3787029854        6.3160283597        8.0913435788
  H        18.5592504100        7.5561105697        7.2356793099
  C        19.8778378897        6.3732023958        6.0706706136
  H         4.5583725113        8.6854330323       -0.4048637038
  H         3.4284067506        8.7978501536        0.9046770206
  C         4.4730890033       10.6387282138        0.6352130751
  S        14.1208116626        1.8690306086       -4.6018161081
  C        13.6631473802       -0.7214368849       -5.2403920213
  H         8.0660717347        7.8656514341       21.7489681742
  H         7.3726176973        9.0663129744       22.8775117547
  H         7.9100653926        9.5704417079       21.2240340725
  H        20.0617666837        5.3286608011        5.8845707716
  H        19.5488713872        6.9792149223        5.2154478103
  H        20.8553780523        6.7443214005        6.3381507441
  H         4.1801314454       10.8979777434        1.6522586113
  H         5.4971721101       10.9710986791        0.6020102694
  H         3.8154286378       11.0558082051       -0.1263732371
  C        14.6400177937        1.1577541891       -6.1195451500
  N        14.4677248744       -0.1973577686       -6.2466004957
  O        13.2625709550       -1.8810962595       -5.1533013937
  S        15.6988927177        1.8703407518       -7.2740065192
  C        14.6018860095       -0.9380883092       -7.5059274351
  H        14.8111012016       -1.9703283215       -7.2158136029
  H        15.4481403196       -0.7234593235       -8.1825455141
  C        13.3633230333       -0.7420108459       -8.3975136684
  H        12.5334087319       -0.1999008971       -7.8796698732
  H        13.0421968798       -1.6874559642       -8.6215527018
  H        13.7152252275       -0.2222153342       -9.3502665916
  H        -3.4176310009       15.2387614447       16.4241060007
  C        -3.0174748891       14.2248462174       16.4811255989
  H        -3.8535241394       13.6425160962       16.7963672954
  C        -1.8725230418       14.2990787117       17.5096949917
  C        -2.4565923132       13.8154400582       15.1284716652
  C        -2.5128698288       14.0245958583       18.8252763807
  H        -1.0822124470       13.4848123667       17.2063728926
  H        -1.2953409892       15.2697878497       17.4854693948
  H        -1.5187035073       14.2928242937       14.8613723956
  H        -2.3064578106       12.7473097573       14.9444188462
  H        -3.1596508296       14.1367622449       14.4319279641
  C        -1.5909332016       13.7627305381       20.0097742645
  H        -3.1580286363       13.1617438804       18.7095765176
  H        -3.2717164510       14.7901512286       19.0972173674
  C        -2.1309085598       13.6073667890       21.4516375244
  H        -1.1173302168       12.7419630563       19.8883702423
  H        -0.6641850167       14.2924837367       19.9447529173
  C        -1.0595026424       12.9474154747       22.3841303603
  H        -3.0066291813       12.9484151522       21.4343654654
  H        -2.2833283276       14.6300443075       21.8082949506
  C         0.1771647199       13.8117270571       22.5982092449
  H        -1.5207861907       12.6548027987       23.3452744399
  H        -0.7910315148       11.9564504434       21.9723819108
  C         1.3307438457       13.1215683149       23.3735528177
  H         0.4797649363       14.2942898310       21.6299756736
  H        -0.1318747517       14.6369688838       23.1953594581
  C         1.6872747860       11.7631004738       22.6678208437
  C         0.8630014764       12.4057817586       24.6484458053
  C         2.5258178384       14.0394139565       23.5581332910
  C         1.4231613363       10.6977512895       23.5257213813
  C         2.1912815345       11.3598897845       21.4184286347
  C         1.0037738384       11.0997135319       24.8028408761
  C         0.4036447638       13.0566250449       25.7966232726
  H         2.9091027003       14.3495392878       22.6067869405
  H         2.2686011788       14.9903399085       24.0627588344
  C         3.7259094797       13.3332964927       24.1609343222
  S         1.7328222790        9.1845811811       22.7716239031
  C         2.2035798027        9.9904150926       21.2943204993
  H         2.3510379127       12.1476996889       20.7349927195
  C         0.5724683707       10.4458548735       25.9166003036
  H         0.3161105353       14.0900659527       25.8310516307
  C         0.0748256246       12.4251248539       26.9756052162
  H         3.8901987916       12.4019980260       23.5759765848
  H         3.5859356551       12.8474419005       25.0982698986
  C         4.9772474224       14.1926009348       24.3678284137
  C         2.7121774621        9.3939842333       20.0039718508
  C         0.1104191967       11.0894026854       27.0685549535
  H         0.7475782653        9.3486064649       25.9847455132
  C        -0.3734581095       12.7692959932       28.2267687245
  H         5.6269876948       13.7224012212       25.2118061708
  H         4.6128611936       14.9963259316       24.9904828790
  C         5.7660528674       14.4805715813       23.1060761450
  C         2.6663060270        8.0280246474       19.6708349959
  C         3.0863545054       10.2898573735       18.9300800781
  C        -0.2004786599       10.4171106632       28.3992558830
  C        -0.5532198982       11.7333684589       29.0840126585
  S        -0.8675096632       14.2888931371       28.8330862617
  H         6.5574356368       15.1884024602       23.2988466045
  H         5.0808179356       15.1238973684       22.5221561192
  C         6.3146904545       13.2737583103       22.2745828834
  N         2.4342456872        6.9809893034       20.5674064174
  C         2.9520611041        7.5419925408       18.4288310332
  C         3.4727489567        9.8841599715       17.6868788270
  H         3.2855623476       11.2934118852       19.1309434515
  C         0.9971917081        9.6388452305       29.1207739554
  C        -1.5350389344        9.6288852891       28.2190201914
  C        -1.0242319323       12.1247313740       30.3192237950
  C        -1.1062119685       13.5098551933       30.3570094624
  H         7.3563146405       13.1558795323       22.4850148532
  H         5.8706275259       12.3143744356       22.6551718946
  C         6.0954493976       13.3420472457       20.8128183232
  S         2.5901129809        5.5658010107       19.8311629902
  N         2.9386908866        6.1252985293       18.3271413645
  C         3.3518021132        8.4212738845       17.3797178711
  H         3.8174465206       10.5754338117       16.9663664799
  H         1.2735833463        8.8020650986       28.5938492780
  H         0.7068547569        9.2507953279       30.0455016451
  C         2.2774501603       10.4705901447       29.1690398349
  H        -1.2807069282        8.9508209361       27.3837090747
  H        -1.6368561383        8.9500849840       29.0148882476
  C        -2.7574330281       10.4995907807       27.6930607302
  H        -1.2349176553       11.4285655818       31.1178632357
  C        -1.5372228295       14.3161338176       31.5446397189
  H         6.0492304095       14.3857739155       20.5527948476
  H         5.1664728957       12.7819852165       20.6254247566
  C         7.3653869428       12.9974440401       20.0230660041
  C         3.3893065903        7.7909301905       16.0848564822
  H         2.5118890085       10.6471432067       28.1339965535
  H         1.9845680258       11.4309393773       29.7178600505
  C         3.4351459378        9.7194950603       29.8366556832
  H        -2.6604816894       10.9679721243       26.6587105724
  H        -3.0556331766       11.3195179859       28.3734172764
  C        -3.9461907693        9.5707116545       27.4772214065
  C        -1.5551720653       15.7180356257       31.6658688377
  C        -1.7277437539       13.5791366301       32.8457989973
  H         8.1072993247       13.7694984437       20.3500876729
  H         7.7990909544       12.0459998752       20.2514520582
  C         7.2195630641       13.2889302180       18.5564871891
  H         3.1494692307        6.7214608083       15.9944586010
  C         3.7185354954        8.3445290031       14.8699488389
  H         3.5980370147        8.8865798010       29.1431265217
  H         3.0349210565        9.3149955199       30.8218941969
  C         4.7715514447       10.5070355485       29.9553517299
  H        -3.7480416546        8.9941388752       26.5339094336
  H        -4.1087084883        8.7806562403       28.2321708532
  C        -5.2343673995       10.4656787481       27.1856458271
  N        -1.2268579037       16.5207969743       30.6296584739
  C        -1.8025358699       16.3855871836       32.8607118491
  C        -1.9639388643       14.2696346919       34.0419606765
  H        -1.5790856730       12.5128676770       32.8657749912
  H         8.0345275658       12.7771687119       18.0418409916
  H         6.3773920878       12.7543860434       18.1425685943
  H         7.1391495747       14.3629870655       18.3291817488
  S         4.0704979634        9.9726294843       14.4528510241
  C         3.7396852085        7.3829063356       13.7386977259
  H         5.0682464767       10.9688867304       29.0472315786
  H         4.7322999571       11.2829867833       30.7206564238
  C         6.0368425156        9.7086293115       30.3219871193
  H        -4.7380285583       11.3485259406       26.8322091129
  H        -5.7442209140       10.7079422175       28.1335434070
  C        -6.1264109516        9.8871789858       26.0628908885
  S        -1.3339565671       18.0398730277       31.2349113424
  N        -1.8003028630       17.7015568969       32.7326019203
  C        -2.0170467244       15.7957330032       34.1355361496
  H        -2.0579359915       13.6559107743       34.9234061748
  C         4.4991916213        9.3334986940       12.7925880999
  N         4.2434933261        8.0179111000       12.6360223420
  O         3.3922827113        6.2009269369       13.7638517735
  H         6.7502659463       10.3964734728       30.7531248049
  H         6.4365351134        9.2953983996       29.3760278250
  C         5.8058729309        8.6350822884       31.4171956535
  H        -5.4391187462        9.5442813927       25.3168282697
  H        -6.7819997480        9.1015835529       26.3339867390
  C        -7.0158980094       10.9339048813       25.3953390921
  C        -2.2349852673       16.6024914828       35.3279566379
  S         4.8735662988       10.2012972930       11.3302314270
  C         4.2815313142        7.2312157087       11.4034370530
  H         6.5648282464        8.9644442850       32.1288824737
  H         4.8025104701        8.5837952529       31.8397778877
  C         6.2831466834        7.2771623891       30.8122016519
  H        -6.5877075861       11.3760247172       24.4998233138
  H        -7.1787496796       11.8565906396       26.0242261945
  C        -8.4305575878       10.3671700742       25.1250499961
  H        -1.9284537865       17.5964296396       35.2044300921
  C        -2.6693576081       16.1740437767       36.5563299614
  H         5.1458483315        7.6006538245       10.8243470850
  H         4.5993520593        6.2237637660       11.6365576873
  C         2.9439148757        7.3062672563       10.5658961611
  H         7.3127857420        7.3882278906       30.4634788195
  H         5.7514046995        7.0112718671       29.8687058186
  C         6.2204289829        6.2316585034       31.8358377649
  H        -8.8677453757       11.0895691242       24.4359193730
  H        -8.4101676429        9.3280556514       24.6886882969
  C        -9.3781209942       10.4713640911       26.3858535430
  S        -3.4683977367       14.6888862594       36.9702625403
  C        -2.7204209523       17.2034089836       37.5831715385
  H         3.1101932058        7.0257952971        9.5112436434
  H         2.0243468793        6.8407319488       10.8229579100
  H         2.6534942128        8.3200097046       10.7141770760
  H         6.4991252926        6.5312341482       32.8716387908
  H         6.8415484158        5.4246678835       31.5224151661
  H         5.2166135924        5.7592778905       31.9732585260
  H        -9.0216282032        9.6707180760       27.1044322048
  H       -10.4311516908       10.1168669258       26.1714093733
  H        -9.4382888017       11.4076614177       26.9260453986
  C        -3.8609338339       15.4790017136       38.4721592016
  N        -3.5067370912       16.8117107402       38.5869663998
  O        -2.2508142308       18.3617798552       37.3929586104
  S        -4.6580375824       14.7639515383       39.8132703397
  C        -3.7512696214       17.6062954678       39.8303747221
  H        -4.0713352633       18.5955209068       39.4821810349
  H        -4.6251503641       17.2801839756       40.4251185272
  C        -2.4942799512       17.5982707339       40.7230883574
  H        -1.9650614961       16.7064761069       40.5532863024
  H        -1.9920055615       18.5592437683       40.6095272447
  H        -2.7927400368       17.4133734188       41.7362619405
