352
i=
  H         4.4969332598        2.0056423243       12.7584158915
  C         3.4843121625        2.5302974559       12.5917013172
  H         3.7737877992        3.5392191506       12.7011671627
  C         2.8370720309        2.2786072164       11.2162965038
  C         2.7066956773        2.2400744751       13.8168405008
  C         3.7631410114        2.6951655355       10.0887900134
  H         1.9017377746        2.7908057756       11.2718666940
  H         2.4669411911        1.2564863276       11.1284474641
  H         1.9846467863        1.4366002266       13.8159553805
  H         2.0563890587        3.1377021488       14.0056698055
  H         3.4022316887        1.9296820905       14.6081598607
  C         4.4670335111        1.4573387035        9.4769169381
  H         3.1593922052        3.2888572088        9.4110837041
  H         4.5348942028        3.3257993110       10.4114689305
  C         5.2064895112        1.8302298623        8.1781049055
  H         3.6971489127        0.7614183197        9.3310733675
  H         5.1924041958        1.0568177501       10.1896571042
  C         6.5135003143        2.7148019574        8.3947378042
  H         4.4180131867        2.4445918011        7.6602270752
  H         5.3943143112        0.9492111253        7.5141230626
  C         7.7009740015        2.1531057125        9.2195168124
  H         6.8566322586        2.9655892045        7.3517659279
  H         6.2439521095        3.7352780650        8.7526929520
  C         9.0174863613        2.9536622288        9.3129809876
  H         7.9563217788        1.1985235018        8.7760375600
  H         7.3740036703        1.9703670150       10.2266427985
  C         8.7147862757        4.3154864552        9.9407555344
  C         9.5442657048        3.5797874645        8.0673767458
  C        10.1192156230        2.2197056292       10.1222589309
  C         8.9415094490        5.3818376487        9.0578047156
  C         8.1848608342        4.7122781843       11.1750664963
  C         9.4448791290        4.9175148356        7.8758492142
  C        10.0715533093        2.8865010449        6.9401829644
  H         9.6376329345        1.6660883478       10.9649087128
  H        10.5346428538        1.4132795156        9.5011827464
  C        11.3084791171        3.1742712655       10.6051866163
  S         8.5701976934        6.8698017115        9.8275511795
  C         8.1195222113        6.0529213855       11.3021101496
  H         7.9613859290        3.9317661513       11.8984780631
  C         9.8931663719        5.4733979631        6.7238228107
  H        10.0613247664        1.7990589427        7.0338105327
  C        10.4016616382        3.4526244416        5.7736674398
  H        10.8558330057        3.9300583847       11.1573515052
  H        11.8448116854        3.6906486045        9.8256471186
  C        12.3204389761        2.4298247954       11.4966153257
  C         7.7057214036        6.7500655786       12.5733174938
  C        10.3226954586        4.8169084023        5.6068479226
  H         9.9222116377        6.5428065961        6.7338348791
  C        10.8286772365        3.0038067412        4.5196729717
  H        13.2944387724        2.9557599225       11.3135869956
  H        12.4783104641        1.3766005121       11.1344691463
  C        11.9941259862        2.3718317358       13.0402777713
  C         7.6970873863        8.1655578841       12.8219101726
  C         7.1877768952        5.8850472922       13.6538794236
  C        10.7432721836        5.4243747386        4.3244393200
  C        11.0356304002        4.0916221797        3.6806626913
  S        11.0484259537        1.4607149920        3.7374930541
  H        11.7586386271        3.3488714647       13.4384807137
  H        11.1150821727        1.7284719493       13.1982814231
  C        13.2428659909        1.9944785756       13.8490513897
  N         8.0876265160        9.1556694342       11.9491329901
  C         7.4714444192        8.6524887409       14.0647439372
  C         6.9279949332        6.4332214757       14.8972570206
  H         6.9693197319        4.8321299476       13.4843016466
  C        11.9735542792        6.3179811728        4.4783386701
  C         9.6037897159        6.3252326004        3.6988470722
  C        11.4630126482        3.5991142824        2.3662187393
  C        11.4881189938        2.2536469880        2.2255080556
  H        13.7526733582        2.9055400041       14.1618141580
  H        13.9799151530        1.5589369715       13.2475404574
  C        12.9090079649        1.1916208433       15.0924178220
  S         8.0932882938       10.5997972094       12.7302107051
  N         7.5593616517       10.0295419444       14.1159256200
  C         7.0713573308        7.8607035190       15.1685485564
  H         6.5624398530        5.7394987847       15.6468559086
  H        11.9315730358        7.1614569499        5.1584180125
  H        12.2598635856        6.7767879938        3.5559116755
  C        13.2417219268        5.5447348732        4.8816590244
  H         9.5021481381        7.1528228643        4.4167477701
  H         9.7401544138        6.6536023296        2.7113246475
  C         8.3065114529        5.5858596637        3.6906538954
  H        11.6385057505        4.2785192348        1.5792627070
  C        11.6430736880        1.4897202619        0.9443990930
  H        12.4330855537        0.2600247779       14.7091295472
  H        13.8843025708        0.8447367846       15.6040825014
  C        12.1543419746        1.8999556628       16.2239796569
  C         6.8576751142        8.4805111529       16.4316948223
  H        13.1791373935        5.0169553996        5.8155164025
  H        13.5230696942        4.8287619865        4.0825862601
  C        14.4126674453        6.5765086905        4.9380888870
  H         7.8219310788        5.2749236671        4.6412131016
  H         8.5241079445        4.6240326191        3.1816333272
  C         7.0531922898        6.2632372149        2.9747986174
  C        11.6415174395        0.1043357746        0.7398910210
  C        11.9873167066        2.2472339365       -0.2273727987
  H        11.4832755065        1.2047811440       16.7386575496
  H        11.5718958239        2.6625721911       15.7877674560
  C        12.8937603475        2.5480052321       17.3811490527
  H         6.9798802577        9.5927590247       16.4678926786
  C         6.6017812876        8.0059196564       17.6796745412
  H        14.3750670321        7.4097100133        5.6123534225
  H        14.3470161870        6.9031025566        3.8522744121
  C        15.7274096612        5.8471052384        5.1986458345
  H         6.7410837881        7.1102062092        3.5947544040
  H         7.3087413205        6.5091332147        1.9458868662
  C         5.7768719994        5.3678586956        2.8849464605
  N        11.3344505154       -0.8040415158        1.7264475179
  C        11.8665014248       -0.5111063831       -0.4719579529
  C        12.2242609898        1.6946779006       -1.4700550122
  H        12.2641471810        3.2829066538       -0.0092714648
  H        13.6891655130        3.3259091734       17.1292812290
  H        13.4012694809        1.8183306655       17.9700398756
  H        12.2255159031        3.0237432378       18.0831856042
  S         6.4476578984        6.3915735098       18.1786706564
  C         6.3645296121        8.9793812493       18.8029236497
  H        15.6342228309        4.7891207193        5.0148919623
  H        16.4528833144        6.1177240459        4.4243190225
  C        16.2781252486        6.0897348009        6.4995892011
  H         5.2270043852        5.4689145656        3.8264271393
  H         6.0826062380        4.3171667765        2.8040201077
  C         4.6843996876        5.6664795743        1.8685407868
  S        11.2251083654       -2.3442898663        1.0842359646
  N        11.7248255455       -1.8993023684       -0.3887986163
  C        12.2510781264        0.2221145701       -1.5984856341
  H        12.3879438277        2.3767302054       -2.2159622152
  C         6.1506220591        6.9733606119       19.8002063156
  N         6.0950211990        8.3014992418       19.9274348438
  O         6.3576262061       10.2113301093       18.6339928995
  H        16.5183637115        7.1625568532        6.7146211205
  H        15.5773705729        5.9974755277        7.2803416806
  C        17.5393489412        5.3298505775        6.7587413960
  H         5.2381396079        5.5002105573        0.9432249112
  H         3.8352778640        4.9560175598        1.9650709337
  C         4.3305540832        7.1189714391        1.8908508278
  C        12.4968320800       -0.4466730902       -2.8206273453
  S         5.7616784251        5.9834070480       21.2539458052
  C         5.8679226534        8.9847450032       21.2083056227
  H        17.1740384475        4.4390888853        7.2990303327
  H        17.8674082260        4.9305707677        5.8642510291
  C        18.6196747087        5.9221434113        7.6899497736
  H         4.5823343293        7.6284700858        2.9000209367
  H         3.2442239004        7.2367607949        1.8788665077
  C         5.1045603196        7.9507584904        0.8700275114
  H        12.2354613365       -1.4423698985       -2.8556501779
  C        12.9627717272       -0.0664849686       -4.0470914016
  H         5.0964290677        8.4842277650       21.7673716603
  H         5.3809707085        9.8745924471       20.7936381204
  C         7.0914797813        9.0548457832       22.0675764394
  H        18.8166839657        5.3593427476        8.6447704166
  H        18.3354005061        6.8842315675        7.9692346181
  C        20.0057254633        5.9856253748        6.9872123318
  H         6.1108354864        7.6964709078        0.8468123739
  H         4.7664026857        7.6991814732       -0.1616316354
  C         4.8717185068        9.4864269887        1.1165686089
  S        13.4015455720        1.4924664912       -4.5943142950
  C        13.2171872869       -1.1373417196       -5.0144214422
  H         6.9630232812        8.3879337161       22.9253391755
  H         7.3339997945       10.0874109001       22.4741540963
  H         7.8186006564        8.6295221973       21.4039344433
  H        20.3053907113        4.9161246971        6.9487630442
  H        19.8938413758        6.3716234102        5.9667868115
  H        20.8087749516        6.5157334171        7.4871667120
  H         3.8943120941        9.6944168427        0.8680225987
  H         5.1218053487        9.7623233920        2.1445650699
  H         5.5305941908       10.0553930436        0.4140223487
  C        14.0413664140        0.7007775944       -6.0089680579
  N        13.8421899037       -0.6493833952       -6.0605393639
  O        12.7294256097       -2.2686366977       -4.9593959798
  S        14.6676198798        1.5486454616       -7.4145551620
  C        14.1066033591       -1.4371881643       -7.3052812490
  H        14.2930816310       -2.4222301010       -7.0270595073
  H        15.0437846447       -1.1212329743       -7.8909885044
  C        12.8277159765       -1.4419959051       -8.2238641143
  H        12.0736924877       -0.7334556294       -7.9355119027
  H        12.4266273385       -2.4995530867       -8.1538437899
  H        13.0614334986       -1.3135079585       -9.2659786542
  H        -3.4609955171       14.6101841521       16.7318098699
  C        -3.2742497966       13.5843531849       16.7264304487
  H        -4.2276114155       13.2518494741       17.0473758748
  C        -2.1479517454       13.0821623926       17.6305835119
  C        -3.0115341293       13.3134568530       15.2963768112
  C        -2.3295332676       13.6852515009       19.0442134202
  H        -2.0805945318       12.0453267627       17.6862670905
  H        -1.2110863863       13.4025281923       17.1439027578
  H        -2.7726886178       12.3027034499       15.1828587017
  H        -3.7620306781       13.6983255769       14.6612731679
  H        -2.0105745271       13.6800896807       15.1113895197
  C        -2.1457321751       12.6956729686       20.1239596977
  H        -3.3728243239       14.0885384839       19.0453648529
  H        -1.7265074657       14.5536629743       19.0836769822
  C        -2.4412323080       13.3778817405       21.5454704891
  H        -2.7118823342       11.7853777610       20.0318264146
  H        -1.1052426219       12.4091287875       20.1694403934
  C        -1.5237780496       12.8570963107       22.6577145226
  H        -3.4639099310       13.1177550249       21.8160737451
  H        -2.3185763271       14.4432275127       21.6243021687
  C        -0.1945547913       13.5814242312       22.6451858662
  H        -2.1742484460       13.0715027360       23.4720729149
  H        -1.4504426160       11.7893264772       22.4401000698
  C         1.0070947798       12.8162542744       23.3542089693
  H         0.0762421887       13.8468568746       21.6780442133
  H        -0.3607287207       14.5333483917       23.1905010734
  C         1.3708374148       11.5449021735       22.7522701526
  C         0.5884780242       12.1886014740       24.6310130299
  C         2.1584016789       13.7064361504       23.5568365945
  C         1.1630114866       10.4585738670       23.5541935269
  C         1.8564272997       11.1461347064       21.4468300368
  C         0.6024060198       10.8366947795       24.7820037513
  C         0.0430445930       12.8961976420       25.6981376591
  H         2.3694481014       14.1374009375       22.5701160699
  H         1.9545769929       14.5363011568       24.2683030573
  C         3.4814962840       12.9721497307       24.0720677811
  S         1.6535922370        8.9924521284       22.8365148843
  C         2.0888589149        9.7840668872       21.3443697239
  H         1.9651500152       11.9044957357       20.7214158565
  C         0.1822213979       10.3088769363       25.9815983867
  H        -0.1930475545       13.9418939783       25.6216249966
  C        -0.3957181841       12.3577837158       26.8640416942
  H         3.7230075462       12.2024937367       23.3570735997
  H         3.2851696673       12.3707688876       24.9270569246
  C         4.7091911897       13.8898812801       24.3444742685
  C         2.5198222890        9.1166045364       20.0381062434
  C        -0.3675673456       11.0100929277       27.0154239656
  H         0.1267227422        9.2013677151       26.0956988294
  C        -0.8338132699       12.8275108943       28.0626762608
  H         5.3359751034       13.1875615452       24.9245923934
  H         4.3819480816       14.6646457479       24.9978074842
  C         5.2991138659       14.4324858328       23.0368378201
  C         2.5579970351        7.7609564623       19.6865319502
  C         2.7371329654        9.9852056659       18.8771104961
  C        -0.8632269750       10.4566879353       28.2779379425
  C        -1.1443325808       11.8169903041       28.9168583710
  S        -1.1429690280       14.3708217147       28.7807937060
  H         6.0867508408       15.1650859216       23.3744893650
  H         4.5128261323       14.9819716443       22.4950114413
  C         6.1231380213       13.4024506660       22.2687332918
  N         2.3361416476        6.7404368615       20.5990605750
  C         2.7315361924        7.2483308589       18.4040454238
  C         2.9109629457        9.4887881692       17.5500989323
  H         2.8868841959       11.0032871391       19.0407165719
  C         0.2286931953        9.6536601035       29.0839601271
  C        -2.1661681750        9.6830297631       28.1606442901
  C        -1.5848704047       12.1830926413       30.2282667781
  C        -1.6566856123       13.5641491396       30.2534923131
  H         7.1621040986       13.5538051689       22.7114929455
  H         5.8660738002       12.3650096510       22.4703933247
  C         6.0989793299       13.6780496918       20.7915874179
  S         2.2687447848        5.3241501832       19.7838045160
  N         2.6818287295        5.8355619018       18.2653204940
  C         3.1120380496        8.0599172314       17.3008815403
  H         3.4545862750       10.2155979193       16.9096452685
  H         0.5365532135        8.9243945131       28.3032707403
  H        -0.1253928864        9.1664308002       30.0248393859
  C         1.5456446060       10.4661447017       29.4293171996
  H        -1.8513665092        8.7880164060       27.5949623432
  H        -2.4308090347        9.4269147413       29.1128743495
  C        -3.2975802453       10.4171153248       27.4770438115
  H        -1.8833065147       11.4132953529       30.9323618874
  C        -1.8555930699       14.3769899616       31.4932839325
  H         5.7680762245       14.7110358156       20.5705879852
  H         5.3483155643       12.9589221056       20.4269919135
  C         7.3655079069       13.2749057981       20.0100709097
  C         3.4744281761        7.4099503106       16.0226671229
  H         2.0731195493       10.8856760721       28.5747255349
  H         1.3487736606       11.3800147905       30.0249130458
  C         2.6132438465        9.5661516341       30.0939791752
  H        -2.9670027187       10.8347042723       26.4858687881
  H        -3.5919790259       11.1319960411       28.2240804120
  C        -4.5355274589        9.5384869303       27.2251274387
  C        -1.8863471127       15.8263907123       31.5794017667
  C        -2.0117639974       13.6139815271       32.7175324040
  H         8.2905573992       13.6509275161       20.4841530435
  H         7.3411519140       12.1969663652       19.9521584373
  C         7.4285010895       13.8583585896       18.5799044278
  H         3.3064522053        6.3209898419       15.9359521110
  C         3.7267121674        8.0321537099       14.8288131076
  H         2.6849125503        8.5758179283       29.7313162523
  H         2.4272340293        9.3789134304       31.1068071391
  C         4.0170160420       10.2403644741       30.1933053758
  H        -4.2942456640        8.7598972531       26.5137573665
  H        -4.7783172337        9.0373711677       28.1328548975
  C        -5.7623416933       10.3013631903       26.7798255622
  N        -1.6719896897       16.7209244331       30.5209728016
  C        -2.0868970248       16.5307290965       32.7443610289
  C        -2.1550562510       14.3600678134       33.9487053273
  H        -2.0059099805       12.5084482887       32.7763947695
  H         8.2634099169       14.5024598701       18.3541816961
  H         7.5486719946       13.1254838355       17.8135357856
  H         6.5566317774       14.4331990311       18.4454978463
  S         4.0586493930        9.6878946773       14.4486507169
  C         3.8878346411        7.1339297531       13.6738962276
  H         4.2602115370       10.8645833115       29.3392467270
  H         3.9358855683       10.9850105241       31.0648254010
  C         5.1657352788        9.2378434116       30.2781207304
  H        -5.5070911153       11.1148590578       26.0928483170
  H        -6.2367800004       10.8557646013       27.6053041008
  C        -6.7281842435        9.4624370810       25.9932293462
  S        -1.6031382377       18.2728916342       31.1025996738
  N        -2.0738021295       17.8789805351       32.6259123170
  C        -2.3370090667       15.8607404751       33.9792770532
  H        -2.1941635171       13.8040212790       34.8580352246
  C         4.3374056549        9.1846554310       12.7660538163
  N         4.2758167835        7.7976106297       12.5474928201
  O         3.7855131311        5.8989815867       13.7617540424
  H         5.6620724278        9.5055075776       31.1916748102
  H         5.8799059800        9.4132431956       29.4617108691
  C         4.7820176175        7.7524858356       30.4539596392
  H        -6.1806233820        8.8544166941       25.2709621393
  H        -7.1996384731        8.8695326296       26.6601787625
  C        -7.6290226241       10.4204814468       25.0901654788
  C        -2.5418008068       16.5480883088       35.1922554903
  S         4.6060729020       10.3027869088       11.4141926230
  C         4.3097970538        7.1119816303       11.2488965415
  H         3.9408391852        7.5776878363       31.0785945065
  H         4.3546144840        7.4641483989       29.4777298973
  C         5.9210267571        6.8085969041       30.7264108797
  H        -6.9434181584       10.5405549525       24.2065024817
  H        -7.7989720165       11.2981888551       25.7203090036
  C        -9.0538291576        9.8499099860       24.7314559705
  H        -2.2897422015       17.6047382718       35.0577187621
  C        -3.0437820909       16.2316039571       36.4313005840
  H         4.8572045057        7.6756651303       10.4855265924
  H         4.8387553406        6.1665389021       11.3955887948
  C         2.8810485302        6.9844663441       10.6553245941
  H         5.5811428255        5.8191455554       31.0800812702
  H         6.4573320608        7.1124300931       31.6133931019
  C         6.9210506205        6.6462836615       29.6798660239
  H        -9.4446041270       10.3006734523       23.8343001548
  H        -8.8159705564        8.8996530166       24.4067364482
  C        -9.9908741929        9.8856110883       25.8518993085
  S        -3.6755284477       14.6795636520       36.9801314462
  C        -3.1233798229       17.3130991837       37.4437223138
  H         2.7120087824        7.8019228019        9.9487080630
  H         2.7488536890        6.0522481323       10.2136765835
  H         2.1403921042        7.0819886064       11.4760792329
  H         7.6988524186        5.9628539295       30.0914773338
  H         7.4771722292        7.4894010391       29.2264527892
  H         6.6248398913        6.2397535239       28.7217343303
  H        -9.8471263449        9.2315245365       26.7315074212
  H       -10.9044694206        9.4007879467       25.4628560396
  H       -10.1708835893       10.9382932046       26.1523061541
  C        -3.9670661679       15.4962407580       38.5027271284
  N        -3.6917356295       16.8883736895       38.5497146039
  O        -2.7625921342       18.4298684195       37.2238662910
  S        -4.7959972632       14.7601436799       39.8648499354
  C        -3.6798744038       17.7565900726       39.7052693253
  H        -3.8324138252       18.7975449548       39.4031648076
  H        -4.5678826100       17.5714352100       40.3676410150
  C        -2.3661568148       17.7058911679       40.4801341852
  H        -1.8104342624       16.7854166419       40.4011749915
  H        -1.7876898403       18.5308719067       40.2109046423
  H        -2.5263612922       17.8258085260       41.5513977008
