352
i=
  H         1.7536513911        1.6744818498       12.1346296148
  C         2.7064205890        2.2031735980       12.1136288757
  H         3.4421973272        1.3937922597       11.9678911056
  C         2.9724003078        3.2221915518       10.9852899220
  C         3.2449943158        2.6666998965       13.4417700551
  C         4.3400160608        3.3071484963       10.2572558352
  H         2.8107366846        4.2657379939       11.3703890765
  H         2.2031856889        3.1028756915       10.2074637104
  H         3.3596105320        1.8552630592       14.0845537042
  H         2.5867352902        3.4200890816       13.8436185254
  H         4.2504536122        3.1620225100       13.3282006144
  C         4.5875913907        2.0376344505        9.5219039435
  H         4.2830706099        4.1797795297        9.6335715002
  H         5.1953814599        3.4436891884       11.0108402593
  C         5.3481655377        2.0643034209        8.2274567078
  H         3.5709196293        1.6159158782        9.3542357623
  H         5.0479887103        1.3576267949       10.2914670535
  C         6.6425774699        2.7890664796        8.3632196549
  H         4.6424803199        2.4880720283        7.4799530460
  H         5.6221445790        1.0610740349        7.9098169570
  C         7.8777759723        1.9135674234        8.8895617138
  H         6.8695644688        3.0624423315        7.3616976287
  H         6.4700953826        3.7400137657        8.9075694758
  C         9.1872921027        2.7190877799        9.1181378588
  H         8.2378298323        1.2105559570        8.0926324473
  H         7.6897193828        1.2453282463        9.7115799025
  C         8.9124702502        4.0371870378        9.7635304983
  C         9.6861360681        3.4180002140        7.8431167201
  C        10.2429641064        2.0540649905        9.9483306278
  C         9.0519860503        5.1497332516        8.9606478676
  C         8.4532782074        4.4696102318       11.0539495547
  C         9.5850187840        4.7933017514        7.7452547371
  C        10.1864517618        2.7620783451        6.7426375585
  H         9.8578357143        1.7201116571       10.8784173091
  H        10.3866147766        1.2242513277        9.2595975485
  C        11.6445344936        2.7510187957       10.2297489585
  S         8.6255391713        6.6005474388        9.7474019629
  C         8.1417062772        5.7656230060       11.1496993597
  H         8.3603256047        3.7860023657       11.8761857845
  C         9.9069420719        5.3574478367        6.6116626338
  H        10.1152851903        1.6710565208        6.8580539066
  C        10.6013983356        3.4144893786        5.6048127633
  H        11.4923258084        3.7562218403       10.6402658146
  H        12.2221172267        2.8249495952        9.2607502145
  C        12.5875550008        2.0853181795       11.2660203881
  C         7.6004160048        6.4364762832       12.3794355646
  C        10.4254686753        4.7169310435        5.5038897564
  H         9.9372056219        6.4648543294        6.5145465831
  C        10.9077152561        3.0084086502        4.3288491169
  H        13.6543039949        2.3490001266       11.0668909870
  H        12.5541728179        1.0155812447       11.2416530677
  C        12.2655001471        2.6053096602       12.7433043941
  C         7.7255570900        7.8158154942       12.6981640984
  C         7.1311184641        5.5752956662       13.5804218112
  C        10.7916878879        5.3386438505        4.1676619009
  C        10.9954049459        4.0756170584        3.4695246442
  S        11.2427561541        1.5185645378        3.6013394567
  H        12.7923473802        3.5212250097       12.8325966732
  H        11.1902630064        2.8551174500       12.7705495919
  C        12.6982851021        1.6058760279       13.8215540188
  N         7.9888815747        8.7450819515       11.7719681935
  C         7.3687494560        8.3466064684       13.9365832882
  C         6.9351456623        6.0833615216       14.8168601618
  H         6.9408913913        4.5516129314       13.3874502521
  C        12.0976818805        6.0726138009        4.2611958376
  C         9.7228396599        6.2172457174        3.4815956395
  C        11.2927223814        3.6743082587        2.1817854281
  C        11.4230656518        2.3318613405        2.0829538675
  H        13.8054425769        1.6996453481       13.9088508560
  H        12.4859320083        0.5439804194       13.6170851868
  C        12.0643357220        1.9237844405       15.2302161677
  S         7.9286370448       10.2328994819       12.4917091162
  N         7.5254270317        9.7468497049       14.0118987399
  C         7.0114919790        7.5464856882       15.0670427174
  H         6.6896075761        5.3980919337       15.6336023918
  H        11.9174153990        6.9285176663        4.9126889931
  H        12.2159140298        6.4706585876        3.2615085293
  C        13.2921280601        5.2285883870        4.5715343068
  H         9.4221745825        7.0282839781        4.2482855752
  H        10.1413922452        6.6889569006        2.5937690713
  C         8.3968407564        5.4992585686        3.0756716863
  H        11.4463589753        4.4860163221        1.5237201484
  C        11.8811199841        1.5220336381        0.9023175626
  H        11.8842188649        2.9827760421       15.1515836383
  H        11.0631245976        1.4278263826       15.2496120592
  C        12.9020899566        1.5720109365       16.5369884494
  C         6.9731273276        8.1861519021       16.3126000699
  H        13.0732507125        4.4204906371        5.2097868003
  H        13.5896341403        4.8273057410        3.5690711872
  C        14.3959215692        5.9989640644        5.1987242997
  H         8.0352713346        4.9898877494        3.9701768715
  H         8.4134128186        4.7669587673        2.3218640264
  C         7.3634675185        6.6229990503        2.7264101121
  C        11.8922787654        0.1340006292        0.7764127828
  C        12.2388125166        2.3053172976       -0.2877239734
  H        13.6113123043        0.7970493757       16.2767972643
  H        12.1621568963        1.0423112351       17.1744904556
  C        13.3943913521        2.7876625938       17.2018376528
  H         6.8243319379        9.2439809820       16.3412882226
  C         6.5458137833        7.8014450305       17.5792604700
  H        13.9874171785        6.6659015758        5.9983052736
  H        14.8927622111        6.5924879296        4.4388065020
  C        15.3784967936        5.1013900789        6.0077016726
  H         7.3296807731        7.3684257703        3.5093738474
  H         7.7877411813        7.1782510505        1.8658059106
  C         5.9465121399        6.1002023517        2.4420905178
  N        11.5181078429       -0.7877625466        1.7213947786
  C        12.2109752504       -0.4721254739       -0.3945449044
  C        12.4931428199        1.6271710272       -1.4281783172
  H        12.3141655172        3.4044059563       -0.2490911290
  H        12.5583176859        3.5260478185       17.1399314052
  H        14.3539919178        3.1682843086       16.7821686081
  H        13.5379171952        2.4842636662       18.1989124431
  S         6.2222124596        6.1864536402       18.1320668413
  C         6.5745394171        8.8210963580       18.6499443534
  H        15.0969819569        5.0052604237        7.0534236134
  H        15.4475612128        4.1839442672        5.4742490619
  C        16.7929579622        5.5372261021        5.9083595655
  H         5.3731922018        6.0135690326        3.3312910501
  H         6.1824560965        5.1618325981        1.9204591736
  C         5.2170637813        7.0775217048        1.4894759937
  S        11.6055907645       -2.2412364922        1.1272789348
  N        12.1382701151       -1.8494913614       -0.3404108352
  C        12.5589152639        0.1756463157       -1.5525512218
  H        12.7204090462        2.1693900070       -2.2943741555
  C         6.0327586313        6.9043529330       19.7658337038
  N         6.1653973067        8.2772936882       19.8038893899
  O         6.8420760854       10.0411393036       18.4623168585
  H        17.1696773881        5.2923232875        4.9116224847
  H        16.8043469458        6.6236124803        5.9557034508
  C        17.7862500834        4.9694724646        6.9215341381
  H         5.8492677853        7.5651856566        0.7725428346
  H         4.4378478012        6.5042658874        0.8774383187
  C         4.5224031901        8.1365401386        2.3174004469
  C        12.7065227767       -0.6019514982       -2.7775847716
  S         5.8347673316        6.0242698083       21.2572402464
  C         5.8872775433        8.9459386539       21.0000084055
  H        17.2759467730        4.8944058424        7.9445141639
  H        17.9383955049        3.9468414916        6.6901898216
  C        19.1571963983        5.7331651435        7.0809600830
  H         4.8767054570        8.1825078983        3.3509560720
  H         3.4714085158        7.8604657336        2.4462415112
  C         4.4669126968        9.5801790309        1.6677657068
  H        12.3001105491       -1.6131474870       -2.7947551942
  C        13.3089679141       -0.3496561610       -3.9838883357
  H         5.1368640355        8.4927987169       21.5877509262
  H         5.3809685572        9.8820441274       20.6783848664
  C         7.1376448407        9.3039208260       21.8395675904
  H        19.5553262796        5.4556674372        8.0285866308
  H        19.0442332985        6.8305453184        7.0049726223
  C        20.0098943026        5.2818497536        5.8392217307
  H         4.0251897074        9.4488903427        0.6751939405
  H         3.7731681249       10.2338741786        2.2490418189
  C         5.8304097415       10.2528886957        1.5265338382
  S        14.0691552721        1.1102253874       -4.4095456472
  C        13.1662265203       -1.3317819913       -5.0392066729
  H         8.0357394480        9.0101934666       21.3332440880
  H         7.1210544538        8.7260058990       22.7705519631
  H         7.1150614245       10.3692760055       22.1062346267
  H        20.4269429652        6.2133968947        5.4307439665
  H        20.8997073086        4.8549211176        6.1020498675
  H        19.5609574469        4.6814741523        5.0790304599
  H         6.3499936249       10.4707939619        2.4140955970
  H         6.5330225774        9.7106790448        0.8195034513
  H         5.5986250863       11.3190041835        1.0980259604
  C        14.2487324645        0.4518868432       -6.0235143192
  N        13.7669643592       -0.7682310567       -6.1935693994
  O        12.5702306011       -2.3977515885       -4.9430466119
  S        15.2919036646        1.1843551200       -7.3039890166
  C        13.8343193468       -1.4708173707       -7.5091269966
  H        13.5019572545       -2.4666106417       -7.2810384165
  H        14.8212582161       -1.6412986549       -7.9286429505
  C        12.8580464470       -0.9565630491       -8.5202111551
  H        11.8415793137       -0.9794837604       -8.0389259609
  H        12.8565593974       -1.5535240633       -9.4429790156
  H        13.0060770711        0.1875909903       -8.7074985103
  H        -2.1822908578       15.3887387173       17.3970360934
  C        -3.0650235555       15.0094978086       16.9181727588
  H        -3.5559884947       15.8543844879       16.6008751348
  C        -3.7672407985       14.2567491802       18.0473678286
  C        -2.8734751618       14.2213090275       15.6006571817
  C        -2.9880849434       13.1778358094       18.7605717654
  H        -4.2397125885       15.0030729833       18.7376432092
  H        -4.6835338231       13.8946785243       17.5407865985
  H        -1.8933964109       13.7099092167       15.5564610947
  H        -3.6244696615       13.4620175324       15.4824609505
  H        -2.8865840558       14.9085100740       14.6949186512
  C        -2.0410805887       13.8607176437       19.7726568284
  H        -2.3477295855       12.6055205027       18.1394005500
  H        -3.7486671528       12.6085496447       19.2396526655
  C        -2.3807751813       13.6905872913       21.2855837843
  H        -0.9930434548       13.6097795176       19.6514890597
  H        -2.0839022245       14.9717030021       19.7097485378
  C        -1.2065582888       12.9838590850       22.0729598148
  H        -3.3436709782       13.2590892685       21.4322816486
  H        -2.5133070735       14.6630213664       21.7528883108
  C        -0.0634885383       13.9191539458       22.4080894678
  H        -1.6525576115       12.5963730130       23.0328388985
  H        -0.9755715876       12.0698835473       21.4353495962
  C         1.1088827787       13.2653400469       23.3211611739
  H         0.2883293155       14.3533219341       21.4895321025
  H        -0.4853999659       14.7203193215       23.0056164914
  C         1.5293440534       11.9303450982       22.5970215179
  C         0.7322042215       12.5380224253       24.5691872263
  C         2.2853496635       14.2699294783       23.3518434683
  C         1.3250579294       10.8220019798       23.4014163536
  C         2.0728521980       11.5281524582       21.4018325647
  C         0.8316897004       11.2290090555       24.5905516483
  C         0.2091170053       13.1547137957       25.7701719959
  H         2.3410451715       14.6618642824       22.3099752945
  H         2.0932339980       15.1053095194       24.0766486483
  C         3.5717604892       13.5311483042       23.8541201476
  S         1.8375808900        9.2804823437       22.7657250585
  C         2.1828532571       10.1539291520       21.2856679244
  H         2.3892253080       12.2472348744       20.6498858457
  C         0.4567543130       10.5512033790       25.7161822932
  H         0.1292598211       14.1977587750       25.8198600720
  C        -0.0586066227       12.4634233653       26.9124926733
  H         3.8887781306       12.7243765223       23.1711980723
  H         3.2189471711       12.9642040994       24.6981086120
  C         4.8015707686       14.4516249928       24.2344304936
  C         2.5914446887        9.4908350073       19.9971442153
  C        -0.0364136772       11.1052418127       26.8939500755
  H         0.4532276427        9.4679983727       25.7007425991
  C        -0.4188416476       12.8229828715       28.2014513553
  H         5.3581870363       13.9930358321       24.9653415373
  H         4.4374160936       15.3704820346       24.7428606572
  C         5.7510263715       14.9185836068       23.1742013242
  C         2.5098952714        8.1018633105       19.6736311065
  C         2.9560002619       10.4334429918       18.8263708959
  C        -0.5109102802       10.3811301440       28.1227859925
  C        -0.6825367282       11.6830407016       28.9839480411
  S        -0.7913284638       14.3029742976       28.9212438409
  H         6.4731610127       15.6680515764       23.5619538153
  H         5.0078468501       15.4634219011       22.5925020368
  C         6.2850706314       13.8329023974       22.2482707958
  N         2.1618992878        7.1296130402       20.6235444171
  C         2.7597030195        7.5919245668       18.4596549274
  C         3.3044066828        9.8065141494       17.6431019722
  H         3.1295215021       11.5007382116       18.9816894029
  C         0.7081939962        9.5785937036       28.6703532542
  C        -1.8013737299        9.6177644800       28.0393408327
  C        -1.0219042010       12.0892391818       30.3142316149
  C        -1.1125572839       13.4418848229       30.3803473125
  H         7.3234522016       14.0258346221       22.0145825183
  H         6.1786496541       13.0233115021       22.9579192490
  C         5.4667470881       13.8197559898       20.9641410847
  S         2.1581198732        5.6852905414       19.9201637734
  N         2.5082758552        6.2207764267       18.4304506255
  C         3.0951092314        8.3252574721       17.3205917008
  H         3.8059804510       10.4850934205       16.9435159785
  H         1.1733498597        9.1425438488       27.7645179113
  H         0.4639260665        8.8073616684       29.3847819323
  C         1.7981901587       10.3445788252       29.3658518172
  H        -1.4753009353        8.8721295280       27.3125474070
  H        -2.1131305537        9.1498886466       28.9635778446
  C        -2.9515761307       10.3485476474       27.4695521730
  H        -1.1703278692       11.3224620274       31.1528965982
  C        -1.4624248701       14.2570513177       31.5714581795
  H         5.5624757372       14.6785026232       20.4722055235
  H         4.3412132611       13.5294499124       21.2150807028
  C         5.9964619715       12.8330960540       19.9365653254
  C         3.4514362294        7.6553539148       16.0783812472
  H         2.1893801787       11.2579499039       28.8715391613
  H         1.4281951039       10.6537245803       30.3341128515
  C         3.0294311467        9.6416290822       29.8242782686
  H        -2.7645057275       10.9680983726       26.5758041582
  H        -3.2409470197       10.9925454791       28.2360159033
  C        -4.1646970459        9.3580467986       27.1385234324
  C        -1.4902020054       15.6690059951       31.7075118053
  C        -1.8613541068       13.5211474306       32.7975738526
  H         6.4667212179       12.0230538401       20.4327440522
  H         5.1802079946       12.4620695818       19.2335142932
  C         7.0496862386       13.4761382433       19.0527384830
  H         3.6228392156        6.6139324868       16.0890145287
  C         3.7796340390        8.0292485376       14.8065296393
  H         3.4575154176        9.0085718823       29.0370499627
  H         2.7630750858        9.0360156461       30.6474699514
  C         4.0722816842       10.5938671106       30.4915816175
  H        -3.8506880671        8.6697557521       26.3897485089
  H        -4.2144715640        8.6452585723       27.9070143950
  C        -5.5775637136        9.9894241947       26.7820178955
  N        -1.2586741720       16.5620732795       30.6957326070
  C        -1.8997210722       16.3554061006       32.8517649494
  C        -2.1391423330       14.1550933320       33.9872661604
  H        -1.6758694886       12.4566376916       32.8111436022
  H         6.6637287204       14.1859856536       18.4178380704
  H         7.8090772596       14.0042900613       19.6483837813
  H         7.5822665837       12.6407346700       18.4842684741
  S         4.0040454544        9.6750039453       14.3709297769
  C         3.8776895987        7.0682475977       13.6641336406
  H         4.3072708107       11.3610009714       29.7468889483
  H         3.6209268005       11.0540567821       31.3163640617
  C         5.4081613940        9.9246020612       30.9143920948
  H        -5.7665101781       10.7569164737       27.5402701320
  H        -6.2588208102        9.2333020390       26.9635491834
  C        -5.5502944995       10.5291775695       25.3672399070
  S        -1.3700844986       18.1493689393       31.3094934634
  N        -1.8935300923       17.7426950263       32.7410518354
  C        -2.2837991706       15.6391843408       33.9900563437
  H        -2.1902412545       13.5250513723       34.8488999505
  C         4.3652956887        9.0429683018       12.7196657346
  N         4.3380421948        7.7113582114       12.5817673108
  O         3.5758538621        5.8715279615       13.8120658013
  H         6.0228774319       10.5828875101       31.5053933207
  H         5.9460955467        9.7549853097       29.9978209472
  C         5.2332552944        8.6197075145       31.6427688335
  H        -4.7502057909       11.1570703188       25.2929171341
  H        -5.4224709505        9.6518664427       24.7344363085
  C        -6.8043009941       11.3751105592       25.0347710081
  C        -2.5050752122       16.4294556704       35.1840269610
  S         4.5055617098       10.0115536907       11.1885981462
  C         4.3949895176        6.9559213600       11.3281044719
  H         4.6431584750        8.8237817074       32.5163450838
  H         4.6173071989        8.0007785683       31.0081286822
  C         6.5224295635        7.9400714180       32.0692503802
  H        -6.4815399549       11.8918458649       24.0975408493
  H        -7.0080991525       12.1086563780       25.7650548317
  C        -8.0426430157       10.4991830253       24.8245223623
  H        -2.1923533355       17.4548710562       35.1121958161
  C        -3.0578572144       16.1139646098       36.3834939565
  H         5.2240118545        7.2896125158       10.6938470397
  H         4.4636232669        5.8723688655       11.6043043382
  C         2.9861369809        7.0758128755       10.7147060776
  H         6.2374947071        7.2543322284       32.8058042082
  H         7.2448768471        8.5991889658       32.5059717906
  C         7.0766260132        7.1549740442       30.8496794001
  H        -8.5923323920       10.6432221548       23.9139066253
  H        -7.7663629036        9.4415097192       24.5931613515
  C        -8.8314482359       10.5505611384       26.0959466955
  S        -3.4318341255       14.5453262978       36.9270209066
  C        -3.3607098377       17.2186726634       37.3544113324
  H         2.1697772408        7.3605045809       11.4592561882
  H         3.1166570865        7.9035611388       10.0494539487
  H         2.6839014413        6.1145864782       10.1998991580
  H         6.3073217068        6.5034219547       30.5091845071
  H         7.9561748809        6.5428984260       31.0714121963
  H         7.1983326016        7.8110171471       30.0041366853
  H        -9.1004029446       11.5464051274       26.3100859005
  H        -8.3176585838       10.0011151274       26.8712929144
  H        -9.7224091911        9.9694356923       25.7554899499
  C        -3.9867569914       15.3425230099       38.4501157569
  N        -3.8769938751       16.6898154310       38.4711123455
  O        -3.1736811599       18.3844522846       37.2325278770
  S        -4.7166971181       14.4617808116       39.8104393095
  C        -4.2074333836       17.5316562788       39.6638711892
  H        -4.4254561583       18.6006425059       39.4713998072
  H        -5.2031869832       17.1890586309       40.0383590981
  C        -3.0222006326       17.6587579595       40.6353994055
  H        -2.8973779217       18.7305232105       40.8474243296
  H        -3.1199471094       17.1068148111       41.5301403371
  H        -2.1278433033       17.3031256247       40.1375338683
