352
i=
  H         4.3712396438        1.2305247075       13.8350947554
  C         3.9985515803        2.2397082026       13.5844591573
  H         4.8324411461        2.9870276418       13.3676525561
  C         3.0610418770        2.2485649997       12.3614633435
  C         3.1812435156        2.7837094185       14.7542570159
  C         3.7769924031        2.7261235449       11.1136824538
  H         2.2926922202        3.0421899639       12.4782267348
  H         2.6336165296        1.2697930849       12.3423778649
  H         3.9166509427        3.2253573054       15.3626458597
  H         2.7832004819        1.9557443916       15.2943139247
  H         2.2975727440        3.4883806232       14.5576211840
  C         4.6723094457        1.5325791790       10.5230750878
  H         3.0737331534        3.0188979394       10.4024006215
  H         4.3564817820        3.6109936106       11.4353574688
  C         5.0984471014        1.7612830229        9.0748244131
  H         4.1018434649        0.6295416562       10.5869783242
  H         5.6063082042        1.4260432341       11.0574124527
  C         6.3673276550        2.5687300250        8.8818606271
  H         4.2386100820        2.2741559634        8.6547565651
  H         5.1511780684        0.7933417030        8.6350231502
  C         7.7568560490        1.8710299288        9.1580664540
  H         6.4249523730        3.0364754048        7.9449176667
  H         6.2108253195        3.3924989850        9.6143249127
  C         9.0571736479        2.7678491925        9.2948772994
  H         7.8960960210        1.1733512936        8.3011628058
  H         7.4814536661        1.2031295203        9.9039842100
  C         8.7350359854        4.0869929487        9.9208114383
  C         9.4186191520        3.4405809058        7.9936839727
  C        10.2994160231        2.1086494285        9.9273687194
  C         8.8225526039        5.2141385064        9.0821543570
  C         8.4748811808        4.5409083488       11.2027587338
  C         9.2390355724        4.8051454726        7.8173227895
  C         9.9221586080        2.8762642146        6.8399477412
  H        10.0294283862        1.6147642404       10.8620281560
  H        10.5957572607        1.3223572104        9.2094096778
  C        11.6168660671        2.8916584712       10.0566088605
  S         8.4953316263        6.7267378708        9.8149290933
  C         8.2720689145        5.8818265630       11.3233959673
  H         8.3386767338        3.8634536543       12.0751636712
  C         9.5739631383        5.4560988503        6.6436126817
  H        10.0499203073        1.7856298748        6.8459409945
  C        10.2989667624        3.5311785758        5.6957672743
  H        11.3649970059        3.8494990787       10.3641986215
  H        12.0952434721        2.9841522220        9.0885641504
  C        12.5090588848        2.3658304600       11.1952490702
  C         7.6674935645        6.5629955937       12.5155337034
  C        10.2508228253        4.8656932299        5.5587041776
  H         9.5506060465        6.4972076479        6.7850332554
  C        10.6971847120        3.1650462514        4.4182933669
  H        13.5790671509        2.7340106863       11.1197628690
  H        12.6535752350        1.3341131963       11.2282511763
  C        11.9146217129        2.7588049796       12.5850919804
  C         7.7661165929        7.9014183758       12.8226239921
  C         7.3787046785        5.6958451945       13.6180571891
  C        10.7431587194        5.5548109425        4.3052963247
  C        10.9982187106        4.2043023473        3.5899294778
  S        11.0697237557        1.7053761328        3.7405611798
  H        12.3386715923        3.6753548639       12.8312784279
  H        10.8472615209        2.8796121674       12.6241868289
  C        12.2049044757        1.6777914246       13.6397315379
  N         8.1665451681        8.9254366679       11.8962900510
  C         7.4606911280        8.4270084795       14.0424893273
  C         7.0851432894        6.1968661582       14.8768838741
  H         7.2450537383        4.6700663920       13.4544802539
  C        12.0544678408        6.3344255310        4.3803414288
  C         9.6548964378        6.2953598080        3.5413747028
  C        11.4874025279        3.8408734122        2.3201915939
  C        11.4563948736        2.4732441969        2.2043064698
  H        12.9726962865        1.0163914123       13.4145230284
  H        11.3649658861        1.0168216643       13.7080723689
  C        12.3560051787        2.2800816096       14.9754596413
  S         8.1985949428       10.3312833494       12.6480444957
  N         7.6752032052        9.8047671043       14.0595705399
  C         7.1724651628        7.6127430714       15.1109647998
  H         6.7259343269        5.4828046678       15.6029445110
  H        11.8565828385        7.2054888387        5.0459284898
  H        12.3564049023        6.7681964804        3.4256896959
  C        13.1794319730        5.4680768112        4.8668980685
  H         9.0859551002        6.9525922206        4.1539035815
  H        10.0041418352        6.9205327419        2.7653755038
  C         8.5580252590        5.4203252431        3.0298082462
  H        11.8682051332        4.4954716821        1.5818446803
  C        11.7378278507        1.7121474018        0.9186265903
  H        13.1785099803        2.9642279590       14.9595632848
  H        11.4607489702        2.8753085676       15.1706682677
  C        12.6167265534        1.3101388079       16.0640689150
  C         6.8728946621        8.2279716557       16.3839706263
  H        12.8161257849        4.9956343144        5.7976453765
  H        13.4133754973        4.6845269884        4.0827546022
  C        14.4316617263        6.2808503541        5.2632533427
  H         8.2211788089        4.8580308057        3.9594874415
  H         8.8594641365        4.7283053319        2.2589859713
  C         7.4293109877        6.2619050102        2.4198531068
  C        11.6960011395        0.3334568006        0.8384814040
  C        11.8691909400        2.4674165432       -0.2965181813
  H        13.4750627583        0.7008437343       15.8145263518
  H        11.7912109389        0.6019094222       16.0055768887
  C        12.7945479808        1.9457366155       17.4684032863
  H         6.7825136938        9.2807436016       16.2746372519
  C         6.5788349757        7.7597941261       17.6187606106
  H        14.1241951479        7.1018087516        5.9598874566
  H        14.8842289040        6.7923902215        4.4331396503
  C        15.4948180277        5.4790970258        5.9998614777
  H         6.9401897912        6.7959489124        3.2299106361
  H         7.7227310409        7.0925920494        1.7891975782
  C         6.3153652079        5.5034221900        1.7303734545
  N        11.2631926312       -0.5298552819        1.8319386834
  C        12.0854135980       -0.3686892906       -0.2988316294
  C        12.1604472317        1.7941995072       -1.4794437800
  H        11.6844497730        3.5058416418       -0.2643194761
  H        11.8319119134        2.4161188990       17.7748757611
  H        13.5950708920        2.7308124387       17.5299458227
  H        13.0321538068        1.1176200708       18.0727956514
  S         6.3398277876        6.0869092907       18.0283422008
  C         6.6309140660        8.7325854393       18.7518799801
  H        15.1122475546        4.8522208340        6.8169527399
  H        15.8544282577        4.8232276360        5.2311312794
  C        16.7007360444        6.1699180572        6.4998525026
  H         5.7598973922        4.9819666070        2.4662913292
  H         6.8237144472        4.8826215994        1.0156290501
  C         5.3383837987        6.5628588356        0.9824809147
  S        11.4870306853       -2.0861573462        1.4563410750
  N        12.1037663366       -1.8084850187       -0.0482284057
  C        12.3062803976        0.3310030369       -1.5196967823
  H        12.2647620441        2.2710993293       -2.3891474907
  C         5.9548821983        6.8160353243       19.6253949160
  N         6.0090965291        8.1538525952       19.7290929930
  O         6.9530708039        9.9265536407       18.6672610249
  H        17.1364293719        6.9161366194        5.8509952999
  H        16.3231871462        6.8126158932        7.3084781600
  C        17.7710822480        5.2102580702        6.9528582345
  H         5.8566680937        7.0157025775        0.1622867294
  H         4.4198610497        6.0386646770        0.5918698743
  C         4.7222783489        7.6565011847        1.8182552064
  C        12.5863023588       -0.4780623795       -2.6848246723
  S         5.3852193805        5.8726178336       20.9806354740
  C         5.8836383073        8.8698103606       20.9998984922
  H        17.4544270269        4.4586649740        7.7093599237
  H        18.1863748379        4.7220129262        6.1230995589
  C        18.8704662502        6.0541456666        7.6101372807
  H         5.5157047041        8.3201785028        2.1410345303
  H         4.2389813943        7.2230085536        2.7437431411
  C         3.8254093171        8.5701545882        0.9199050510
  H        12.4513263569       -1.5242846516       -2.5366576448
  C        13.0635766210       -0.2379809277       -3.9610945818
  H         5.0928274918        8.3948098654       21.5730931239
  H         5.5235933785        9.8852633515       20.8097909831
  C         7.2334357152        8.7770233225       21.7055068967
  H        19.2780813628        5.4107740977        8.3848131502
  H        18.5443317488        6.8929622171        8.1739876093
  C        20.0599619815        6.3392774360        6.7194180498
  H         4.0454478110        8.4698415098       -0.1429155143
  H         2.7901011131        8.2731228047        1.1383483721
  C         3.9860630935       10.0052544654        1.3384288456
  S        13.5606969886        1.3665425774       -4.5907242260
  C        13.1483751606       -1.3618453415       -4.9984645909
  H         7.9539667432        9.4000320964       21.2988367647
  H         7.7172812121        7.7898997165       21.6826490380
  H         7.0258200193        9.0507077180       22.7298320399
  H        20.7914184713        6.8288055458        7.3324993373
  H        20.3933478413        5.4004303273        6.3845698463
  H        19.7765798191        6.9204810586        5.8668705225
  H         3.5114085182       10.0862369294        2.2373543507
  H         4.9882763809       10.4062520505        1.5373312100
  H         3.4527224821       10.6588914794        0.6062476394
  C        13.7284964830        0.5118252731       -6.1058035441
  N        13.5856750208       -0.8151658947       -6.1530582479
  O        12.8032702912       -2.5501738146       -4.8075996626
  S        14.2536302826        1.2737125044       -7.5802182471
  C        13.5544101554       -1.6256365942       -7.3796949747
  H        13.5881725353       -2.7324652570       -7.2924548419
  H        14.3780110717       -1.3583727792       -8.0958251441
  C        12.3088607706       -1.3883043516       -8.1352828655
  H        11.3886724198       -1.1189769733       -7.5861362285
  H        12.1356364369       -2.3091692294       -8.6937540547
  H        12.3576187960       -0.5580181168       -8.9060699535
  H        -2.0408820706       15.3581649841       17.2594966098
  C        -2.9600278813       14.7504752657       17.0586064291
  H        -3.7446338640       15.5189665719       16.8415055429
  C        -3.3400304516       13.9038443149       18.2225029294
  C        -2.5604970946       13.9818636145       15.7924559904
  C        -2.3583465985       12.7544801893       18.6206461778
  H        -3.4746211742       14.5549823083       19.0810123064
  H        -4.3203036023       13.6093994421       17.9266635052
  H        -1.5005384014       13.8276938747       15.6656896581
  H        -3.1290335558       13.0934756755       15.8580510160
  H        -2.7983546456       14.6007656177       14.8881837205
  C        -1.4827762394       13.0675344381       19.7682815498
  H        -1.7181194486       12.4231123163       17.7697654748
  H        -3.0229924018       11.9606349070       19.0114752339
  C        -2.1790111236       13.1042652577       21.1175467094
  H        -0.7056847689       12.2781235837       19.9220600824
  H        -0.9746509005       14.0716670712       19.5726388134
  C        -1.2425685967       12.5752103232       22.1706074537
  H        -3.0852551885       12.5194245810       21.1236800968
  H        -2.4536122881       14.1209385548       21.4407511964
  C        -0.1247912517       13.5140953197       22.5118929439
  H        -1.8545287239       12.5253255669       22.9855298686
  H        -1.0186572886       11.5498008540       22.0646175605
  C         1.1315766545       12.9177285421       23.1417933882
  H         0.3169569562       14.0783542873       21.6722950644
  H        -0.3715505842       14.4176064625       23.1051789047
  C         1.6694262198       11.6513113064       22.4445576419
  C         0.7252401771       12.1449751823       24.3799163512
  C         2.2182342464       13.9914624143       23.4071055190
  C         1.4489578185       10.4888700430       23.1840468716
  C         2.1740214115       11.2753179746       21.1784240064
  C         0.8844423617       10.8354672261       24.4279712167
  C         0.1982915458       12.7284006062       25.5825181225
  H         2.4833808476       14.3792533571       22.4222246915
  H         1.7578236837       14.8343959729       23.9093901655
  C         3.4919329750       13.4228963113       24.0527535666
  S         1.7893789458        9.0320625892       22.4127544362
  C         2.2881922110        9.8901631533       21.0658985954
  H         2.5102390369       12.0404293188       20.4858580856
  C         0.4229995156       10.1311294921       25.5620708043
  H         0.2081145985       13.7948088975       25.6566408030
  C        -0.1642575707       12.0091500326       26.6401794053
  H         3.8886368639       12.6049695611       23.4765883195
  H         3.2035573046       12.9045733252       25.0091983429
  C         4.6577218248       14.3755644092       24.2826405023
  C         2.7367476299        9.1694354253       19.8104355571
  C        -0.0602597042       10.6758932532       26.7629658558
  H         0.5458345905        9.0453983410       25.6105592002
  C        -0.6075034709       12.3409531546       27.8656375905
  H         5.3353917909       13.8936975242       24.8547660371
  H         4.3038756518       15.2145941628       24.8422207345
  C         5.3326361515       14.8711715843       22.9786820116
  C         2.5908765796        7.8232273177       19.4659254825
  C         3.0421068271       10.0182507013       18.6782162048
  C        -0.5294229608        9.9612328732       28.0050635647
  C        -0.8202684144       11.2691399057       28.6976728896
  S        -0.8496003143       13.8764295130       28.6337539243
  H         6.0340623919       15.6707161852       23.3710761257
  H         4.6237955831       15.4365378012       22.3135189952
  C         6.0884604958       13.8029547030       22.1654313673
  N         2.2647350094        6.8876899291       20.4343881920
  C         2.7905770198        7.2511971521       18.2165011136
  C         3.2621448661        9.4139352377       17.4032635737
  H         3.1337116018       11.1193685397       18.8356866427
  C         0.5604011523        9.1452454168       28.8352342522
  C        -1.8646245073        9.2735048923       27.7463951237
  C        -1.3548905217       11.6641246937       29.9443790329
  C        -1.3505226051       13.0287831001       30.0534669443
  H         7.1679302616       14.0598259323       22.0481092519
  H         5.9670209942       12.8395475911       22.6983547076
  C         5.7119577010       13.7824212657       20.6838925442
  S         2.1885641740        5.3828642811       19.7792687702
  N         2.5754284290        5.8503696145       18.2407603415
  C         3.2401007445        7.9640300604       17.1564592066
  H         3.5657741422       10.0356332427       16.6335962913
  H         0.8572460201        8.3644560454       28.1242144958
  H         0.0151967296        8.7516832500       29.6809662793
  C         1.7490668954        9.8753691690       29.4442172975
  H        -1.6955530165        8.5907176711       26.9119472762
  H        -2.1386826527        8.6462618061       28.5425925723
  C        -3.0863282190       10.1689783060       27.4758271799
  H        -1.8998981559       10.9370747536       30.6075514785
  C        -1.6686878559       13.7977131407       31.3278310360
  H         5.7379806810       14.7840987855       20.2134247470
  H         4.7404981139       13.2811101780       20.4794982900
  C         6.4926046597       12.6911037494       19.9549105485
  C         3.4173586240        7.3718093367       15.8905018352
  H         2.0300184241       10.5347200813       28.5850645131
  H         1.3445323614       10.5088116066       30.2236483310
  C         2.8636686661        8.9925012785       30.0239595113
  H        -2.8759592702       10.7323706982       26.5276780080
  H        -3.3048155645       10.8759377064       28.2819811609
  C        -4.3744795992        9.2082227834       27.4121026528
  C        -1.7144765131       15.1929227624       31.5210305847
  C        -2.0642770519       13.0356046326       32.5315239507
  H         7.0085601858       12.1087521557       20.6434486160
  H         5.7077883459       11.9878499342       19.5466374459
  C         7.4479692824       13.2397037752       18.9097131530
  H         3.3760412262        6.2989920431       15.9784882837
  C         3.7604905869        7.8585725591       14.6115914077
  H         3.2365457756        8.3616453200       29.1951826815
  H         2.4071632870        8.3626506057       30.7818510696
  C         4.0528436938        9.7385366513       30.6998205964
  H        -4.2422763669        8.4738086234       26.5711708622
  H        -4.4291166563        8.7374344459       28.4164439451
  C        -5.6816996388        9.9921980181       27.0566579406
  N        -1.2333122955       16.0181409192       30.5620312561
  C        -1.9635552901       15.8212422216       32.7234074183
  C        -2.3812298097       13.6290260456       33.7432711910
  H        -2.0079201563       11.9927453906       32.5202529279
  H         6.9784483194       13.7066132776       18.1282847332
  H         8.0678049666       13.9309016334       19.4684584364
  H         8.0418878809       12.3895970435       18.5885170688
  S         4.0709291840        9.5547675850       14.1478080118
  C         3.9573639670        6.8910476120       13.5175976891
  H         3.9715785559       10.7907837689       30.3434860345
  H         4.0421687363        9.6985789899       31.7646901607
  C         5.4344058391        9.1653748125       30.3831053821
  H        -5.7527547191       10.8407822793       27.7436838498
  H        -6.5771225690        9.4917324198       27.3212889068
  C        -5.8123733295       10.3409639833       25.5727265682
  S        -1.3643047478       17.5481592790       31.1464794392
  N        -1.9272184173       17.1867764035       32.6414140857
  C        -2.2895984910       15.1457460283       33.8894268707
  H        -2.5383532251       13.0160343450       34.5907858655
  C         4.1372737448        8.9144138610       12.5154975815
  N         4.2347642951        7.5846395982       12.3909787990
  O         3.9543360839        5.6613260240       13.7008080997
  H         6.2669044246        9.8404590878       30.6409735358
  H         5.4592724208        8.9366621230       29.3305078266
  C         5.4938098933        7.8490836422       31.1440592282
  H        -4.9957500661       10.9678497109       25.3287928739
  H        -5.5269773248        9.4065094430       24.9386240499
  C        -7.1069559518       11.0226576293       25.1881551479
  C        -2.6918907658       15.9405492363       35.0033233630
  S         4.6658570838        9.9131916173       11.1371945225
  C         4.3718152253        7.0332599132       11.0460067322
  H         5.1983189185        7.9139491933       32.1619538377
  H         4.7452053550        7.1025532417       30.7584518023
  C         6.8162501259        7.0932969321       31.2146819428
  H        -7.2115171409       11.4519508251       24.1741787859
  H        -7.1949323656       11.8277318264       25.7824889864
  C        -8.3273633821       10.1468993721       25.3641051306
  H        -2.4030660356       16.9725281524       34.9950463251
  C        -3.2254697700       15.5528723542       36.2468712057
  H         5.1170459655        7.5588468550       10.4833531757
  H         4.7895319470        6.0496522013       11.1810887772
  C         3.0206885441        6.8571813184       10.3023843125
  H         6.6553933512        6.0908643418       31.5784600323
  H         7.4888276816        7.6509633834       31.8928012446
  C         7.2784208844        6.9358833570       29.7865669837
  H        -8.8344889188       10.1268698875       24.4556834438
  H        -7.9706531691        9.1484405131       25.4860772851
  C        -9.0626973366       10.6881036707       26.4980265273
  S        -3.7107829123       13.9430449769       36.6583728697
  C        -3.2013541486       16.5787821722       37.3317025560
  H         3.1859900870        6.1666992034        9.4002866808
  H         2.1637725683        6.4834525772       10.8668122958
  H         2.6389576879        7.7221869688        9.6585243285
  H         6.4804902342        6.8468211916       29.0975863168
  H         7.8865978923        6.0296558633       29.7368020539
  H         7.7625312359        7.8671092354       29.5355002519
  H        -9.4431001265       11.6339907626       26.3633529204
  H        -8.5252542671       10.5980169456       27.4075158375
  H        -9.9406219691       10.1015474681       26.4612336110
  C        -4.1744420156       14.7905385173       38.1349658655
  N        -3.9225711553       16.0919169345       38.3415035052
  O        -2.7657828472       17.7153207482       37.1829792402
  S        -5.1774586164       13.8873924400       39.3102952488
  C        -4.1657647704       16.8646279074       39.5830260300
  H        -4.1496111345       17.9452934954       39.4480202182
  H        -5.1906469557       16.5913766298       39.8638134260
  C        -3.1957672690       16.4050720629       40.6408144367
  H        -3.3811771342       16.8916699897       41.5795796213
  H        -3.1021199952       15.4075956241       40.8627209515
  H        -2.2436522277       16.7249868573       40.2706332825
