352
i=
  H         2.2125180753        1.6488597688       13.5772770284
  C         3.2338648458        1.7859212354       13.0987630462
  H         3.7021353068        0.7951656797       13.0799997602
  C         2.9405446724        2.5157298764       11.7391490478
  C         4.0337424004        2.6775956237       14.0477310316
  C         4.0931377555        2.7757516217       10.8419445176
  H         2.4607703728        3.4509868095       11.9649887906
  H         2.1708829632        2.0042893326       11.2182516242
  H         4.8298897822        2.1867727825       14.5915047789
  H         3.3483871504        3.2237847422       14.6352113328
  H         4.7018317826        3.3511606903       13.5119476101
  C         4.5024264182        1.4441301592       10.3137579918
  H         3.7888885933        3.5417595536       10.0749459454
  H         4.8637832642        3.3397251105       11.2943230149
  C         5.1913273601        1.5882730598        8.9445662788
  H         3.5378635885        0.9245851029       10.1541897111
  H         5.1560595886        0.7802199177       10.9644234354
  C         6.4454698870        2.5333053328        9.0024949926
  H         4.4241781145        2.0349789325        8.2352326923
  H         5.4972105554        0.6508632944        8.5939374462
  C         7.6386059435        1.8237240169        9.5496092435
  H         6.5738217113        3.0020582699        7.9843602309
  H         6.2482936285        3.4034254503        9.6227971892
  C         8.9434300561        2.6761073107        9.6463885478
  H         7.8961369353        0.8969452353        9.1164714154
  H         7.3746923002        1.5739685029       10.6116697827
  C         8.6498025077        4.0249368345       10.3775972836
  C         9.3200407472        3.3906622315        8.3758253634
  C        10.1829674072        1.9688966711       10.2166663077
  C         8.9231106766        5.1782007178        9.5955233754
  C         8.2127883606        4.4665500608       11.6641258783
  C         9.3107027236        4.7618990116        8.3202554511
  C         9.5887755997        2.7935881649        7.1703053131
  H         9.9237778940        1.4071157616       11.1134528264
  H        10.3684495963        1.2831510628        9.3453078259
  C        11.4649225991        2.8361064656       10.3748711570
  S         8.5836705502        6.6730732003       10.3049814916
  C         8.0651771115        5.8291241539       11.7035016196
  H         7.9352548918        3.7367994327       12.4014685253
  C         9.5934532216        5.3412989731        7.1049936012
  H         9.5922915972        1.7519781748        7.2155815986
  C         9.9107251076        3.4025250356        5.9884512964
  H        11.2228214093        3.8991878280       10.6683299091
  H        11.9359135843        2.8831932744        9.3997311856
  C        12.4875469678        2.3473667156       11.3006912815
  C         7.5109073053        6.6005718784       12.9024302197
  C         9.9064016679        4.7437213825        5.8827325154
  H         9.6349541799        6.4195277736        7.1153818483
  C        10.2793913567        2.9734682335        4.6568126309
  H        13.2498416272        3.1036407251       11.3297782858
  H        12.8813358947        1.3619372144       10.9251492861
  C        11.8587383818        2.1098464996       12.7078059321
  C         7.4982914380        8.0193123566       13.0480452447
  C         7.1328964701        5.8377604569       14.1119545053
  C        10.3172044123        5.4417105643        4.6569157817
  C        10.5280615545        4.0398648634        3.8908365384
  S        10.6342964620        1.4740108029        3.9724686118
  H        11.0215560297        2.8186439186       12.8485088642
  H        11.3896546951        1.0769611490       12.7575817084
  C        12.7364845737        2.1829330901       13.9460130803
  N         7.7794457885        8.8524066658       11.9968750271
  C         7.2592997410        8.7153996191       14.2301511403
  C         6.9364785427        6.5038309537       15.2890092575
  H         6.9183505161        4.7974002282       14.0675042222
  C        11.6071992320        6.3318547993        4.8719269719
  C         9.1661992145        6.2843441765        4.1202185850
  C        10.9839079975        3.5979738973        2.5964723307
  C        11.1844808045        2.2682201418        2.5646745435
  H        13.2150292193        3.1781478060       13.9487862364
  H        13.5603197710        1.4736237399       13.8868370723
  C        12.0093142643        1.9858503589       15.2648482906
  S         7.7860874642       10.4140149929       12.5938590396
  N         7.3280825713       10.1062504311       14.0559388418
  C         6.9263175737        7.9824924866       15.4176579583
  H         6.5535106855        5.9025213452       16.0903861055
  H        11.4567194951        7.1746634226        5.5792535649
  H        11.9310114939        6.8543429118        3.9762366609
  C        12.7477209040        5.5178038060        5.3829543446
  H         8.9207372000        7.0181179511        4.9194181487
  H         9.3934075663        7.0166065517        3.3345942772
  C         7.8341591938        5.5906718389        3.8506584913
  H        11.1537644376        4.3549583652        1.8601454336
  C        11.6879742550        1.5899990009        1.2716751271
  H        11.1935148514        2.7041257520       15.4375615104
  H        11.4092605737        1.0823476486       15.3077334671
  C        13.0748152829        2.0548057240       16.3472253519
  C         6.7023341378        8.7917472038       16.5271803178
  H        12.5333055253        4.9854128992        6.3531431887
  H        12.9934082253        4.8080762147        4.6349647917
  C        13.9844796370        6.4251965100        5.6524697823
  H         7.0831983354        6.1304404450        4.4716783211
  H         7.8655699008        4.5673861770        4.1284060191
  C         7.6007552020        5.7520804353        2.3367567321
  C        11.8067840516        0.1898570904        1.1196182980
  C        11.9535688092        2.3547795698        0.0453171369
  H        13.5432826892        3.0197065572       16.3018396424
  H        13.8852662815        1.3374041207       16.0791060184
  C        12.4879823074        1.9195733982       17.6872632959
  H         6.8909835090        9.9021285701       16.4314429010
  C         6.5025719012        8.5674677988       17.8789181348
  H        13.6005331199        7.2550834637        6.2654250474
  H        14.4466062488        6.9603502463        4.7653191023
  C        14.9935664162        5.7666289658        6.6431111561
  H         7.7269062709        6.7928560481        1.9566293108
  H         8.3697196937        5.3205182566        1.7317689080
  C         6.2807587879        5.2185908973        1.8177555116
  N        11.6278054425       -0.7622756312        2.1103021828
  C        12.1824404921       -0.3227386955       -0.1340370470
  C        12.3463455382        1.7963732583       -1.1549709600
  H        11.8574547600        3.4394083320        0.0509035082
  H        12.6093443534        2.8698796194       18.2098424430
  H        13.0241288316        1.2223167170       18.3577449422
  H        11.4674484081        1.6033099816       17.7610045201
  S         6.2965181016        7.0110887000       18.5924154521
  C         6.4610556574        9.7327095370       18.8170970592
  H        15.2882488042        6.6083769480        7.2939247443
  H        14.6874705191        4.8324907338        7.1395574711
  C        16.2143945780        5.3005764501        5.8200112177
  H         5.9761625792        4.2776733253        2.2739058471
  H         6.2954303036        5.0235641665        0.7461356527
  C         5.1407860297        6.2516226237        2.1135756234
  S        11.5584984163       -2.2182602094        1.3608534196
  N        12.1414184605       -1.7251195053       -0.0690676306
  C        12.5283871340        0.3643944213       -1.3104143706
  H        12.5334844179        2.4166235987       -2.0128613951
  C         6.3846586072        7.8769341794       20.1447521752
  N         6.2667903602        9.2421233848       20.0516595023
  O         6.4791548648       10.9342311189       18.5568380883
  H        15.9200260953        4.3850498523        5.2223019691
  H        16.4685736897        6.1119300613        5.2111264787
  C        17.3551681416        4.9251824756        6.8517520102
  H         4.1945000685        5.7133991118        1.9038990889
  H         5.0551637057        6.3095712968        3.1721100679
  C         5.1388378261        7.4894826440        1.2706982141
  C        12.7273372013       -0.4451780880       -2.5098360176
  S         6.1557853814        7.0725965899       21.7302405397
  C         6.2633505646       10.1533239464       21.2236087639
  H        16.9200400541        4.2788269818        7.5270273755
  H        18.0711485182        4.2747159615        6.3856916410
  C        18.0478133535        6.0836275129        7.5231219645
  H         5.0476781727        7.2750736167        0.1947800470
  H         6.0781168220        8.0113100246        1.3601557137
  C         3.9874808694        8.4646026685        1.7907272106
  H        12.4950832354       -1.4930471354       -2.4594281391
  C        13.2218166676       -0.1274102143       -3.7314415613
  H         5.6509467098        9.7088799039       21.9135956418
  H         5.8091356681       11.1426372995       20.9858213052
  C         7.7492908226       10.3725937107       21.7285847130
  H        17.5066370040        6.6718004674        8.2591977353
  H        18.2844941544        6.7801570174        6.7809412950
  C        19.3130717495        5.6908935784        8.1852646877
  H         3.1877547637        8.3797752552        1.0374761807
  H         3.6949116162        8.2082432617        2.7980524573
  C         4.3688800154       10.0168180044        1.8210618915
  S        13.8040047554        1.3693542164       -4.1513586914
  C        13.4328556235       -1.2023520823       -4.7938863687
  H         7.8347266431        9.8558664266       22.7231887386
  H         7.8131553616       11.3932440866       22.0455838497
  H         8.5471610533       10.2201539304       20.9966308682
  H        19.1568801349        4.9145614998        8.9017115352
  H        20.0159120741        5.3442561281        7.3954356356
  H        19.7492078674        6.5772195758        8.6305889396
  H         3.4716159934       10.5440370240        2.1139432791
  H         5.0452436432       10.3096036409        2.5943300216
  H         4.6183540730       10.3949456803        0.8435430382
  C        14.0334339892        0.7102652059       -5.7852284815
  N        13.8159453098       -0.6399098248       -5.9079791655
  O        12.9946466303       -2.3741812860       -4.6876142571
  S        14.4568420358        1.6773919691       -7.1733229248
  C        13.8886662707       -1.3213891880       -7.1899226817
  H        14.3005852761       -2.2945317303       -6.9520947061
  H        14.5475076881       -0.7907153813       -7.8333223216
  C        12.5309183318       -1.3206078193       -7.8792665536
  H        12.3893127644       -0.3815717433       -8.4151273846
  H        11.7847798327       -1.3162535773       -7.0589741852
  H        12.5325197802       -2.1242330217       -8.6190835305
  H        -1.7542171449       14.8983672600       16.2347186339
  C        -2.5975243951       14.2979469997       16.5725613337
  H        -3.3511457202       14.9270656456       17.0107860434
  C        -1.9739455006       13.5197944873       17.6823605794
  C        -3.2741245015       13.4163615421       15.4857369365
  C        -2.0131513762       14.1286337405       19.0482085296
  H        -2.5512663216       12.6050148803       17.7097218051
  H        -0.9629858751       13.2391066654       17.3435116751
  H        -2.6264925196       12.9866866196       14.6895182584
  H        -3.6594086415       12.5451310109       16.0185428106
  H        -4.1680661514       13.8395344264       14.9594758275
  C        -1.6230069536       13.1369200718       20.2117191544
  H        -2.9604358665       14.5184262914       19.1355301851
  H        -1.2421562963       14.9150320713       18.9579739795
  C        -2.0122827423       13.6019583782       21.6153321225
  H        -2.1928701513       12.1727530656       20.0763152577
  H        -0.5175389065       12.9971640522       20.2482252529
  C        -1.0010510804       12.9553742559       22.5554404666
  H        -3.0633057376       13.3170357869       21.8896259759
  H        -1.9652605089       14.7027491391       21.5829013157
  C         0.2712231648       13.8663904704       22.8110365740
  H        -1.4157291784       12.6253533707       23.5258557319
  H        -0.7013755172       12.0042091171       22.2688602863
  C         1.4380074257       13.0413907487       23.4027014015
  H         0.6296674678       14.3016161071       21.9257131637
  H         0.1945862897       14.7042310855       23.5190798692
  C         1.7806965756       11.7762605957       22.6432879043
  C         1.0548633093       12.3096394506       24.5866191322
  C         2.6882868936       13.9289422518       23.5716349804
  C         1.7417837703       10.6626005043       23.4633458561
  C         2.1479690708       11.4516131916       21.3079458195
  C         1.2069468472       10.9957121157       24.6902510214
  C         0.6960040763       12.9815129717       25.7705245359
  H         2.8524569150       14.4242876172       22.6407734599
  H         2.5064544465       14.6953744089       24.3211962755
  C         4.0418172480       13.2472719954       23.7921406404
  S         2.1426435372        9.1832902029       22.7142751341
  C         2.3282942327       10.0818373389       21.2567734871
  H         2.0759484191       12.2374437930       20.5218964951
  C         0.8865285871       10.3473893187       25.8323738836
  H         0.6459312250       14.0298131355       25.7095885492
  C         0.3489495328       12.3368377309       26.9209264247
  H         4.3601414960       12.7299105167       22.8680438718
  H         4.0696625359       12.6110936306       24.6888266480
  C         5.0323452822       14.3367357869       24.1269491617
  C         2.7113696169        9.4564982156       19.9579234010
  C         0.4144415796       10.9661103588       27.0074897877
  H         0.9210690836        9.3175281854       25.9498002902
  C        -0.0324819673       12.6397833211       28.1997135333
  H         5.7438936068       13.8736652128       24.8361406543
  H         4.6292421632       15.1514974983       24.5865824998
  C         5.7912237019       15.0664272129       22.9995878925
  C         2.8780974141        8.0402413862       19.7041993651
  C         2.8643545718       10.2602406295       18.7302012394
  C        -0.0160555542       10.2372179236       28.2472526297
  C        -0.2904291394       11.5489606602       28.9540365232
  S        -0.2788858229       14.0997232366       29.0504094124
  H         6.4267985054       15.7213743847       23.5139070419
  H         5.2095067447       15.7799451518       22.4644126531
  C         6.6422054157       14.1965201840       22.0921862924
  N         2.7950835206        7.0452599161       20.7253016992
  C         3.0782824084        7.4878523548       18.4449227675
  C         3.1157490235        9.7338800696       17.4600883209
  H         2.7776253613       11.3302753525       18.7318177326
  C         1.0833525271        9.4241948561       28.9474508425
  C        -1.2590044299        9.3776244703       27.9695848708
  C        -0.6009141986       11.8831774878       30.2887402357
  C        -0.6934512788       13.2500086163       30.4423846749
  H         7.7356010097       14.4635564467       22.2370237019
  H         6.4674270390       13.2188318860       22.4480151074
  C         6.3221555517       14.2407315420       20.5562672502
  S         3.0341907076        5.5922630533       19.9946551655
  N         3.1177690190        6.1189126675       18.4846504526
  C         3.2149617783        8.2296346421       17.2835982336
  H         3.1741478107       10.4361454149       16.6501242717
  H         1.3530502364        8.8351282646       28.1402539860
  H         0.6070742432        8.8489378788       29.6861720942
  C         2.2638529803       10.3176566485       29.4334161034
  H        -1.0256999351        8.7913570857       27.0143718807
  H        -1.3594613786        8.6323487049       28.6851587134
  C        -2.5497329068       10.1871738621       27.7181938813
  H        -0.6963099854       11.1394825006       30.9994412185
  C        -1.0635353895       13.9806910235       31.6772658330
  H         5.9263754345       15.1745389605       20.2362631583
  H         5.5598003350       13.5177657315       20.3161154407
  C         7.6071327647       14.0266509212       19.8607867171
  C         3.4101459899        7.3963149280       16.1117306339
  H         2.6537791841       10.7686420211       28.5165176925
  H         2.0080977282       11.1409444587       30.1998097233
  C         3.5085932575        9.5006762961       30.0173657462
  H        -2.3858432369       10.5992813439       26.7358951402
  H        -2.7401170590       10.9453779355       28.4081248796
  C        -3.8340335465        9.3597008509       27.6963014900
  C        -1.2136457038       15.4139587306       31.7906414878
  C        -1.2706549697       13.2439722887       32.9085373753
  H         8.4424223253       14.6621208775       20.2308023940
  H         7.8747104109       12.9375955820       19.9418509977
  C         7.5494358132       14.1518776342       18.4006856496
  H         3.2095071100        6.3027247239       16.0181292052
  C         3.6943499717        7.8106466959       14.8198719385
  H         4.0691841848        8.9669569104       29.2421305746
  H         3.1778755330        8.7814599639       30.7512664920
  C         4.4659861652       10.4016160139       30.8917345475
  H        -3.6166247585        8.6059002374       26.8899332643
  H        -3.9910215230        8.8753980185       28.6561078193
  C        -5.1217309724       10.0770764138       27.4540100714
  N        -1.0332636519       16.3527458110       30.7968529395
  C        -1.5192795648       16.0217134480       33.0086900498
  C        -1.6336922235       13.8413789674       34.0699395764
  H        -1.1149532829       12.1645329249       32.9453069791
  H         7.2174438461       13.2596787514       17.9314288010
  H         6.9847049521       15.0475244995       18.1188586147
  H         8.5570122420       14.3412767234       17.9906155836
  S         4.1092426757        9.3785190452       14.2961316221
  C         3.5720695330        6.7550256633       13.7353767642
  H         4.6086727930       11.4075422183       30.5045547047
  H         4.0394467750       10.5051397638       31.9220580533
  C         5.9122333274        9.9187782033       30.9750074624
  H        -5.3899141488       10.8340246888       28.2096968533
  H        -5.8609361620        9.3049087903       27.5597964588
  C        -5.1506648095       10.5403030417       25.9935085135
  S        -1.2115126499       17.8638897773       31.4014183145
  N        -1.6647148058       17.3821606399       32.9328806823
  C        -1.8424883650       15.2776903806       34.1931347621
  H        -1.7431708535       13.2038190247       34.9889307817
  C         4.0503905474        8.7164949231       12.5976965450
  N         3.9198470170        7.3587195688       12.5648127005
  O         3.2336646563        5.5740134474       13.8460710937
  H         6.3741287841       10.5358128756       31.7500225096
  H         6.5277406941       10.1049159768       30.0291679453
  C         5.9421252623        8.4556726564       31.5177595454
  H        -4.5206076430       11.4296110944       25.8380603760
  H        -4.7827114665        9.7712137759       25.2583412819
  C        -6.5815667966       10.9779951861       25.6349493240
  C        -2.2971971058       15.9841448780       35.3506146028
  S         4.4253683572        9.4990634743       11.1005175401
  C         3.8792178904        6.6149981051       11.2834850038
  H         6.4887086345        8.5272626911       32.4719954968
  H         4.9877465163        7.9959701494       31.6631151733
  C         6.8042538321        7.4764989932       30.8065308229
  H        -6.4969840563       11.3892306927       24.6111043147
  H        -6.9109268734       11.8041311965       26.2265458773
  C        -7.6520985969        9.8613247567       25.7857999817
  H        -2.1954760561       17.0784767852       35.4190826233
  C        -2.8536587818       15.5382022480       36.4840683410
  H         4.4601736177        6.9837491802       10.4640445955
  H         4.3427486181        5.6539504267       11.4442297280
  C         2.4235379693        6.4623517095       10.7741973111
  H         7.7189029574        7.9406638788       30.4990825514
  H         6.3412601965        7.0497487080       29.9099989082
  C         7.0142557976        6.1415283745       31.5978598038
  H        -7.3561942250        9.0396424167       25.1732656359
  H        -7.9208001930        9.6054953468       26.8130839573
  C        -8.9858144362       10.2595251499       25.1641082964
  S        -3.2349093816       13.9259109968       36.9784644192
  C        -3.1212363597       16.5516362141       37.5447043839
  H         1.9830401316        5.7554686980       11.4661762387
  H         1.9032914496        7.3907690513       10.7736179957
  H         2.3836148267        5.8385814313        9.8973194737
  H         7.5416656020        6.3831193562       32.5506350238
  H         7.4746956763        5.2978462948       31.0469614724
  H         6.0205273093        5.8575112326       32.0194002307
  H        -8.9014861677        9.8895044599       24.0902790143
  H        -9.2163489615       11.3136688065       25.2378957309
  H        -9.7714128495        9.7649950053       25.6370633057
  C        -3.7322286013       14.6359648786       38.4989000887
  N        -3.7027877878       15.9971575185       38.5836020314
  O        -2.8630042501       17.7295934662       37.4598125697
  S        -4.2596663343       13.6524077965       39.8510140486
  C        -3.9605869415       16.7389168249       39.8349097400
  H        -4.1503770994       17.7445064497       39.5071893819
  H        -4.8626735922       16.3509611007       40.3562976693
  C        -2.7887016027       16.7269257530       40.7191402080
  H        -2.9143913320       17.5004838358       41.4845303884
  H        -2.6046753252       15.7607392070       41.0542204299
  H        -1.9420305524       16.8788945894       40.1053755110
