352
i=
  H         3.9950460867        1.4231216305       12.5158796848
  C         3.7488325651        2.4437419924       12.5121111778
  H         4.6603964219        3.0562928795       12.3532324946
  C         2.7191059750        2.6838841552       11.3467823479
  C         3.1470380667        2.6778582845       13.8688766034
  C         3.4811526101        2.9421761509       10.0444315447
  H         2.0476708661        3.4853479295       11.5558010773
  H         2.0384113469        1.8292541598       11.0473716604
  H         2.9239636949        1.6979729439       14.3349327667
  H         2.1906707760        3.2513944983       13.7623672983
  H         3.8460383432        3.2553273321       14.6212600387
  C         4.2958419910        1.7264976503        9.5572092158
  H         2.7768257829        3.3319903557        9.2483539159
  H         4.2301988051        3.7523378255       10.0400996953
  C         5.0599795806        1.9163281928        8.2507159914
  H         3.6270456433        0.8626896835        9.5793484700
  H         5.0137232406        1.5298878562       10.3479929704
  C         6.3516331164        2.8116465395        8.3469944539
  H         4.3338327332        2.4145200914        7.6381087228
  H         5.3084148487        0.9412960466        7.7684877804
  C         7.5049526084        1.9854173484        8.9307235106
  H         6.6792140281        3.2440475784        7.4002016193
  H         6.1709417403        3.6714387448        9.0064979847
  C         8.7509428324        2.8641021835        9.2382154609
  H         7.6757551606        1.2645676064        8.1922274739
  H         7.3896828790        1.5570090394        9.8971551066
  C         8.4188936593        4.1942026925        9.8761129002
  C         9.1997826440        3.5365887205        8.0059938620
  C         9.9094854753        2.0646099824       10.0078057946
  C         8.6928705213        5.3029104022        9.0472578383
  C         7.8791449873        4.6275027028       11.1017320458
  C         9.2300404455        4.8988617761        7.8915032910
  C         9.6653096615        2.8755115418        6.8991121436
  H         9.5706037893        1.6530677568       10.9857858007
  H        10.2442139644        1.1900554852        9.5189298162
  C        11.2694331835        2.8638598627       10.0703050797
  S         8.2806947993        6.8461260284        9.7266318443
  C         7.7803253219        6.0360115286       11.1779417838
  H         7.6139872506        3.9896582663       11.8752121666
  C         9.6909841607        5.5430907684        6.7678885697
  H         9.8226570953        1.8202334596        6.9568575622
  C        10.1144209524        3.4709642486        5.7373932421
  H        11.2118624799        3.9530169029       10.3120058556
  H        11.7810453793        2.9329582015        9.1226929799
  C        12.1994639164        2.3223138477       11.1417974633
  C         7.4402013627        6.7455598824       12.4251562355
  C        10.0234163093        4.8260887682        5.5900126735
  H         9.9717288396        6.5225794612        6.6785085332
  C        10.4655977009        3.0622053899        4.4815208119
  H        13.2983344387        2.4761358717       10.9021276604
  H        12.2128715496        1.2298493271       11.0533566755
  C        11.7234407821        2.7365303773       12.4939296512
  C         7.4364865651        8.1199533666       12.7326948979
  C         6.9999845097        5.9620500288       13.6033526652
  C        10.4894665566        5.5156054008        4.3238413151
  C        10.8249548464        4.1044782422        3.7010373117
  S        10.6342403532        1.5781750918        3.7654652864
  H        12.6124975103        3.1968752354       12.9061317356
  H        11.0439196627        3.5710799892       12.3692211839
  C        11.1208908640        1.6051211466       13.4551917979
  N         7.6546726679        9.1315666055       11.7860488072
  C         7.1536061560        8.6309155064       13.9814695686
  C         6.6362863067        6.4531665866       14.8502407010
  H         6.9561365236        4.9273153302       13.4661299127
  C        11.7683958291        6.4087177225        4.2753672922
  C         9.2564636606        6.2659447094        3.7775346124
  C        11.1309408403        3.7164897188        2.3939576600
  C        11.1553968284        2.3619867489        2.3184658166
  H        11.6546722450        0.6366274786       13.4025736500
  H        10.1137959293        1.4707562574       13.1504745332
  C        11.0636386502        2.0684104403       14.9203887852
  S         7.6245014554       10.5959388739       12.5581840547
  N         7.2129136522       10.0615270006       14.0157064339
  C         6.7682749072        7.9121324124       15.0990738697
  H         6.4115892351        5.8027934700       15.6295878237
  H        11.6194706463        7.0731714581        5.1362324765
  H        11.9524063252        6.8846552890        3.3485382384
  C        13.0693758888        5.6607167451        4.6651196698
  H         8.7776277342        6.7587853356        4.6716243848
  H         9.5586327630        7.0670764138        3.2289798498
  C         8.1419821484        5.4596528099        3.0598695174
  H        11.3244874765        4.4944766693        1.6354937625
  C        11.6588279877        1.6854816077        1.0927741954
  H        10.9757343144        3.1794551516       14.9847210462
  H        10.1837624170        1.7612146208       15.4825967511
  C        12.2780103712        1.5379566892       15.6281939793
  C         6.6977646555        8.4973998275       16.3956823083
  H        12.9120616435        5.0424705335        5.4932125345
  H        13.2759571613        4.9215328245        3.9036768905
  C        14.1835386861        6.7112084291        4.8940204643
  H         7.6477788974        4.6950034287        3.7175413238
  H         8.4804547429        4.9420022822        2.1774044749
  C         7.1041820739        6.4797208681        2.6127851738
  C        11.6946425296        0.2570663986        0.8359174805
  C        11.9854507252        2.4961367669       -0.1481681759
  H        13.1538515612        1.5166543590       15.0429286966
  H        12.0247275630        0.5030203137       15.8773547710
  C        12.5125244845        2.2913125826       16.9392391506
  H         6.8390532380        9.5947530296       16.3156108717
  C         6.4245906796        8.0542827506       17.6871874235
  H        13.8118535251        7.2864522057        5.7014609735
  H        14.2983222777        7.2847481093        4.0118504496
  C        15.5119630364        6.0138998533        5.1881189624
  H         6.5179610315        6.8028823126        3.4855423174
  H         7.8089365977        7.2874060169        2.2272608339
  C         6.0284595236        6.0414941220        1.5615512958
  N        11.5802985284       -0.6481121415        1.9170904907
  C        12.1439542296       -0.3399381328       -0.3137629909
  C        12.3213365586        1.8164818820       -1.3540939218
  H        11.9111519525        3.5591127054       -0.2323272628
  H        13.3751249677        1.9937737287       17.4843448486
  H        11.6609774500        2.1577302312       17.6882796865
  H        12.6124782763        3.3954135998       16.6124299885
  S         5.9192556321        6.4165595483       18.1683725818
  C         6.1246646277        9.0565242180       18.7478695965
  H        15.6408778958        5.1030797804        4.6024109134
  H        16.2679990622        6.7196830773        4.7187649034
  C        15.7965361769        5.9028588126        6.6641907593
  H         5.3218061110        5.3939858763        2.0854900840
  H         6.5537271494        5.6099383169        0.7822551468
  C         5.1917858690        7.3185203102        1.1683911240
  S        11.8119076972       -2.1247453618        1.3489901020
  N        12.2133247049       -1.7209195904       -0.2185801611
  C        12.4928969355        0.3571483444       -1.4267048091
  H        12.6742173279        2.3959146386       -2.2520429109
  C         5.7879104207        7.0327084257       19.8575325501
  N         5.7746466624        8.3947877884       19.9639479323
  O         6.3379326905       10.2400746190       18.5667606021
  H        15.8225469210        6.9078177975        7.0620124259
  H        15.1334074923        5.1750133321        6.9038278061
  C        17.1666191989        5.3424487308        7.0684271763
  H         5.9041438434        8.0860048183        0.7438715256
  H         4.5275001015        6.8555559631        0.4427698284
  C         4.2741230930        7.8493877937        2.2168041706
  C        12.9975945816       -0.2882244885       -2.6161218399
  S         5.4091447648        6.0105331717       21.2080311382
  C         5.7444738414        9.1793705562       21.1609053967
  H        17.3039358331        5.5672353611        8.1534279349
  H        17.1942661875        4.2461681101        6.8365883454
  C        18.3071230155        5.9439767716        6.2682816244
  H         4.7349954947        8.1371147157        3.0704609887
  H         3.6217001448        6.9106788296        2.1847879870
  C         3.4597330267        9.0785206372        1.7434288404
  H        12.9982625346       -1.3801575338       -2.5314276144
  C        13.3165585847        0.0935347385       -3.9208592752
  H         5.0435840555        8.6232166766       21.8175908402
  H         5.3628164985       10.0972359231       20.9313923858
  C         7.0455503329        9.3271813489       21.8019646251
  H        18.3113478888        7.0164178152        6.0787147707
  H        18.2156794327        5.4262764161        5.2943844648
  C        19.6789417072        5.7136435996        6.8654128862
  H         2.7740251791        8.7631014866        0.9964527313
  H         2.8514756804        9.4469372946        2.5646027236
  C         4.2523300902       10.2439247937        1.0348555160
  S        13.6357388839        1.6474872209       -4.5861612464
  C        13.3860665298       -1.0911207377       -4.8305469607
  H         6.8525375457        9.7190180795       22.8018649094
  H         7.7006692505        9.8981689372       21.2176706423
  H         7.3890782550        8.3581533866       21.9705833128
  H        20.1679136162        6.6692655737        7.0271111713
  H        19.7510063387        5.2871968198        7.8584342675
  H        20.2540550730        5.0430124589        6.1930435301
  H         3.7911446359       11.2175516841        1.0680168542
  H         5.1869490132       10.2856796148        1.4839883789
  H         4.4110306350       10.0357215812       -0.0098628546
  C        13.9965666112        0.7367029389       -6.0603097299
  N        13.6943771023       -0.5974068597       -6.0199506159
  O        12.9882375409       -2.1830537638       -4.5575150194
  S        14.6444453699        1.3895168737       -7.5751549436
  C        13.8618055769       -1.4497565258       -7.1629734951
  H        13.8675161646       -2.4358632140       -6.7241878300
  H        14.7460379462       -1.2863848116       -7.7479636519
  C        12.7156948315       -1.3340909002       -8.0689484221
  H        12.5654458616       -2.2506801163       -8.5747722232
  H        12.8846813174       -0.5731316461       -8.7782526663
  H        11.7799096740       -1.0782890875       -7.5406081865
  H        -2.3365595394       15.3347841763       15.0739781108
  C        -2.8670119961       14.6246338385       15.6759937050
  H        -3.6923385688       15.3107033634       15.9890278732
  C        -2.0020535457       14.1418676480       16.9172513156
  C        -3.4145476967       13.4632809261       14.7469941757
  C        -2.7568648977       14.3114376123       18.2327281151
  H        -1.7962192788       13.0539983940       16.6727957012
  H        -1.1026846877       14.6513520686       16.7729095266
  H        -3.6878334018       13.8119943944       13.7249135009
  H        -2.6747964219       12.7236610789       14.5099234695
  H        -4.3052992249       13.0143320028       15.2084735660
  C        -1.7349007145       14.0154187404       19.3187673021
  H        -3.6446164454       13.6452642891       18.2776938720
  H        -3.0074226612       15.3254991447       18.3836725510
  C        -2.2599085605       13.9774692387       20.7119566995
  H        -1.2008202018       13.0848623793       19.0985179949
  H        -1.0659905573       14.8419100606       19.2391389082
  C        -1.2860547803       13.3757005017       21.7440422928
  H        -3.2669486603       13.5881403469       20.7845659916
  H        -2.6230599358       15.0930536177       20.8721502816
  C         0.0510535688       14.1628415582       21.8755236621
  H        -1.7482964606       13.5157442297       22.7170293161
  H        -1.0268051071       12.3355942125       21.5380115987
  C         1.1335245869       13.4127096652       22.7859375428
  H         0.4984566997       14.3052266561       20.9369184996
  H        -0.2536246733       15.0742896543       22.4206527083
  C         1.6387613147       12.1165304372       22.2509228649
  C         0.5850493831       12.7812753412       24.0160009834
  C         2.3563135819       14.3263043498       23.1140583635
  C         1.2758745913       11.0208942111       23.0139120590
  C         2.1975950101       11.7012980752       21.0376958403
  C         0.6898463448       11.4762888021       24.2020543479
  C         0.0590453481       13.4609957353       25.0657962116
  H         2.5953938710       14.8912498660       22.1678992056
  H         2.1034663184       15.1010992721       23.8713528231
  C         3.5916980320       13.5870564902       23.6384590617
  S         1.7078835891        9.5146244788       22.3580631984
  C         2.1449526404       10.3652018839       20.9069786242
  H         2.5180749012       12.4298002959       20.3350325808
  C         0.1867457471       10.8834522190       25.3125964421
  H         0.1652218358       14.5083270941       24.7897756843
  C        -0.4297047142       12.8873291622       26.1684700949
  H         3.8669310485       12.8126210192       22.9103883504
  H         3.1983337917       13.1027777172       24.5057283706
  C         4.7884842826       14.5445786420       23.9595046554
  C         2.4580399763        9.6523691673       19.7221217594
  C        -0.3837002493       11.5715025100       26.4200835892
  H         0.1461898709        9.8788670542       25.3008229928
  C        -0.9200005431       13.3722259074       27.3890750235
  H         5.5972323403       14.0425307639       24.4569179870
  H         4.3935514830       15.2575252516       24.6379255644
  C         5.4124270435       15.2147352330       22.7670815311
  C         2.3374454776        8.2665887493       19.5171787835
  C         2.9664943606       10.3755674395       18.5656899352
  C        -0.8900684594       10.9143127946       27.6532554157
  C        -1.1866734119       12.2902846868       28.2439881752
  S        -1.1835065396       14.9258458027       28.2089125813
  H         5.8817917942       16.0792978371       23.1431148792
  H         4.6566607359       15.4738153085       22.0507253031
  C         6.5417494347       14.3533841746       22.1702038112
  N         1.6976229781        7.3818484615       20.3377128387
  C         2.5404033971        7.7344816257       18.2305595161
  C         3.3092919061        9.7403000588       17.4051425995
  H         3.3349078944       11.3134212446       18.8077372201
  C         0.1818681391       10.1080113706       28.3418858565
  C        -2.1868748189       10.0014118641       27.3949775571
  C        -1.6567337001       12.7179595354       29.4752550213
  C        -1.5601368337       14.0788418718       29.6523411971
  H         7.4511947463       14.8248125291       22.1270270232
  H         6.8070574856       13.5782732654       22.8450462818
  C         6.1581571042       13.9630553690       20.6741564572
  S         1.7737649112        5.8600502160       19.6847311101
  N         2.3217809792        6.3575611483       18.2451208299
  C         2.9918957049        8.3352371643       17.1023561824
  H         3.7988241895       10.2856459477       16.6141432074
  H         0.6027379311        9.5475736326       27.4792236785
  H        -0.3240183188        9.3907646546       29.0226254927
  C         1.2688790422       10.9365504841       29.1137580226
  H        -1.9206325157        9.2321970145       26.6246868411
  H        -2.5139680236        9.4780898457       28.2771661829
  C        -3.3085195673       10.9419124132       27.0695613603
  H        -1.8628651189       11.9060065151       30.2687060948
  C        -1.8961804111       14.7249217545       31.0410345051
  H         5.4890260782       14.7218913912       20.2068799430
  H         5.4765301097       13.0798536962       20.6071873538
  C         7.4145275884       13.6873508426       19.7539546720
  C         3.2528747733        7.5735344769       15.9475480686
  H         1.8042063199       11.6033573258       28.4295190596
  H         0.7950647016       11.5164486975       29.9493242823
  C         2.2349177067        9.9149204756       29.7309726398
  H        -3.1547045072       11.5889855560       26.2363235733
  H        -3.5339056266       11.4525614745       27.9433311503
  C        -4.5303083234       10.0608303618       26.8839244626
  C        -1.9922365339       16.0946911196       31.2881579270
  C        -2.1075447106       13.9233762594       32.2559841907
  H         8.1259956663       14.4849003437       19.8419189343
  H         7.9741704748       12.7626333991       20.0306511730
  C         7.0180390368       13.7999821439       18.3004345823
  H         3.0355269064        6.5390297630       15.8827503834
  C         3.4293315438        8.0526453747       14.6063782402
  H         2.1285526355        9.1482752893       28.9046322693
  H         1.8279049955        9.3613358346       30.5393535374
  C         3.7052368171       10.5091860048       29.9226429257
  H        -4.3122642129        9.2742906578       26.1351585007
  H        -4.7662574593        9.5873522731       27.8376383883
  C        -5.7935657344       10.8502683130       26.3232409551
  N        -1.6925129211       17.0105745125       30.3314108058
  C        -2.1257318296       16.6589985064       32.5492111467
  C        -2.4286370599       14.3952634181       33.4641385482
  H        -1.8912957350       12.8780641233       32.1906013580
  H         7.6708232984       13.2232174986       17.6225149556
  H         5.9673878271       13.5670938316       18.1489026556
  H         7.1902429707       14.8542566929       17.9773716397
  S         3.7829992779        9.6266386109       14.0821186896
  C         3.4181087299        7.0575092265       13.4996038147
  H         3.8781164191       11.2719852446       29.1418707812
  H         3.5421356048       11.0513746438       30.8510394284
  C         4.7284648307        9.4148853179       29.9801737156
  H        -5.4720200270       11.1297364062       25.3641644045
  H        -5.9455438609       11.8405323288       26.7807897132
  C        -7.0723831863        9.9803715587       26.2411253037
  S        -1.5659924390       18.5003292872       31.0215469630
  N        -1.9533905489       18.0284807708       32.5488755347
  C        -2.3441254583       15.8891579510       33.7648244023
  H        -2.5531405184       13.6931960452       34.3381816459
  C         4.0946699417        8.9242092934       12.4897797385
  N         3.7596311799        7.6302620024       12.3481303127
  O         3.3577761285        5.8052654078       13.6843601557
  H         5.7356933434        9.8444880445       29.9909674117
  H         4.5869895595        8.8404397126       29.0509003401
  C         4.4076062816        8.4884030107       31.0686879979
  H        -6.9246507532        9.0915667199       25.6753951151
  H        -7.1945087943        9.6453764554       27.2207251479
  C        -8.1666184966       10.7132061670       25.5625756788
  C        -2.6670739164       16.5899621147       34.9630435824
  S         4.4372367658        9.8516142344       11.0083160835
  C         3.8306746379        6.8937883242       11.0363976790
  H         4.2107302672        9.1184984876       31.9554021636
  H         3.4653385997        7.9012540338       30.8312279837
  C         5.5918573017        7.5521018025       31.4108528758
  H        -7.7720876490       11.0754485545       24.6606026254
  H        -8.5340493087       11.6060331445       26.0635471636
  C        -9.4203483281        9.9802650191       25.2116887986
  H        -2.7532430918       17.6294022612       34.8109192822
  C        -3.1376577109       16.1475104641       36.1721147313
  H         4.7247159792        7.1762357446       10.4856057360
  H         4.0492392177        5.8187690747       11.1750394101
  C         2.5027956058        7.0754747727       10.3545329985
  H         5.3168294411        6.6478830526       31.9634942338
  H         6.3289120426        7.9902357602       32.1083565571
  C         6.3912206189        6.9489954365       30.1989686044
  H       -10.0728516630       10.5894355019       24.5948446128
  H        -9.1471385318        9.2472099694       24.5397885347
  C       -10.1270264424        9.4659746425       26.4325034123
  S        -3.4085405066       14.5339272077       36.6004203964
  C        -3.1452799141       17.1226077165       37.2338570391
  H         2.4947429033        7.5874546257        9.3714998150
  H         2.1622005762        6.0541782820       10.4516923372
  H         1.9026386050        7.7206541583       10.8990781153
  H         6.8818249572        6.0013497331       30.4178112423
  H         7.0210820920        7.6272105869       29.6583560988
  H         5.5422209368        6.7902289695       29.5686062478
  H        -9.5587428304        8.9149223774       27.1750358205
  H       -11.1454534467        9.1262554199       26.1985981317
  H       -10.5712224334       10.2835085264       26.9515124707
  C        -3.8007058303       15.2033011608       38.2240674926
  N        -3.6249371914       16.4937956252       38.3434520272
  O        -2.7418571670       18.2310587296       37.1920832927
  S        -4.2994940305       14.2321957831       39.5815125611
  C        -3.6774753162       17.1498154720       39.6955796857
  H        -3.9943625240       18.1424056489       39.5206219699
  H        -4.4459242220       16.8344077805       40.3619364297
  C        -2.2639425560       17.1059825373       40.3721543935
  H        -2.2422619125       17.4142005098       41.4668936606
  H        -1.9764352248       16.0998464325       40.5025623405
  H        -1.4951240923       17.5322026484       39.7950616719
