352
i=
  H         4.0854974878        2.1948538116       12.2052685795
  C         3.8198144546        3.2356111307       12.2850938062
  H         4.7337804009        3.7249317635       12.4582815335
  C         3.3925752821        3.8237922004       10.9335640171
  C         2.6935496635        3.4715271739       13.2857266025
  C         4.5236071933        4.0346306128        9.8911053349
  H         3.0844162705        4.8273589494       11.1769982932
  H         2.6824724149        3.0592440119       10.5665333672
  H         2.3318192350        2.5842169957       13.7627061930
  H         1.9230339261        3.9184086829       12.7691746818
  H         2.9746835406        4.2983579584       13.9539950683
  C         4.7416766115        2.7758712299        9.0068746123
  H         4.2786621701        4.8714346104        9.2025312809
  H         5.3464525566        4.3871073918       10.4702824871
  C         5.8603818851        2.8027868862        7.9936975391
  H         3.8608479433        2.3517729581        8.5327821934
  H         5.1270705624        2.0276375489        9.6918159099
  C         7.0343441949        3.7515619962        8.1819605173
  H         5.4778983312        3.2476277937        7.0820309398
  H         6.2251050907        1.7847989022        7.7141006120
  C         8.1802987805        2.9100040335        8.6331376291
  H         7.2300895457        4.0692951552        7.1294406366
  H         6.7424319346        4.6814427535        8.7307556419
  C         9.4342447384        3.7250968074        8.8711291445
  H         8.5669451063        2.2256657190        7.9404143991
  H         7.8982230803        2.4045643414        9.5275306074
  C         9.1522029009        5.0765031973        9.5212186057
  C         9.9097001636        4.4064677665        7.6280039049
  C        10.6288985426        2.9222468686        9.5978640853
  C         9.5021289338        6.1997590962        8.7614519692
  C         8.7202001017        5.5182853448       10.7467645833
  C         9.9622837630        5.7665179021        7.5171508018
  C        10.2622171384        3.7533716736        6.4983316100
  H        10.2530748169        2.2618883942       10.3641229093
  H        10.9247512108        2.1959920401        8.8970948642
  C        11.8528314762        3.7300854108       10.0783736554
  S         9.0077010362        7.7697774615        9.4098940974
  C         8.5120340176        6.8733270238       10.8322847648
  H         8.5526831151        4.7089561375       11.4487368407
  C        10.5129415277        6.3248234173        6.3849540283
  H        10.1644725772        2.6944261430        6.5537970040
  C        10.6135438415        4.2329107952        5.2681500626
  H        11.5774936011        4.5021144590       10.7922048125
  H        12.2227946564        4.2801956436        9.2719981714
  C        12.9304281380        2.8299397204       10.6764709330
  C         7.9656852852        7.5444391127       12.0181163777
  C        10.7773776790        5.5871867908        5.2083163520
  H        10.7124517574        7.3998358315        6.3793260773
  C        11.1064894355        3.7614642991        4.0508872881
  H        13.8885210709        3.4054986642       10.6177524422
  H        13.0352005419        1.8469892640       10.1810488251
  C        12.6604774767        2.3485154547       12.1599740323
  C         7.9286747311        8.9163658870       12.3177980633
  C         7.5897088935        6.5926788610       13.1391632182
  C        11.2442255906        6.2350680497        3.8659933893
  C        11.3638567944        4.8203202077        3.2100096619
  S        11.4179480088        2.2564988830        3.3703396470
  H        11.6265250094        2.6145921253       12.4649140628
  H        12.5978293951        1.2238544977       12.1509257655
  C        13.6655367712        2.8534281558       13.1405491438
  N         8.2008218784        9.9134972490       11.3961446066
  C         7.5886803418        9.3568050148       13.6160292187
  C         7.2369202144        7.0546650950       14.4195025700
  H         7.3951432974        5.5158628208       12.9555023491
  C        12.6033088454        6.9984155744        3.9591563602
  C        10.2082750975        7.1254904292        3.2091240444
  C        11.5945562748        4.4008816538        1.8836400249
  C        11.7369148552        3.0081801394        1.8309275272
  H        13.3036149272        3.8535564039       13.5234073926
  H        14.6676861888        3.0146063291       12.6444394129
  C        13.8001741754        1.8092026148       14.3313042904
  S         8.0214199551       11.3203683706       12.1972250166
  N         7.7156078930       10.7816939464       13.7447818884
  C         7.2630807941        8.5183155230       14.7473614676
  H         6.9388249021        6.3595591694       15.1754226573
  H        12.3962264256        8.0348937152        4.3127391804
  H        12.8820959559        7.2215287675        2.9401507490
  C        13.5220687795        6.3043249127        4.9734878656
  H         9.9021544871        7.9445468270        3.8610997984
  H        10.6670741601        7.7535965600        2.4359261595
  C         8.9038814947        6.3957604939        2.7984246123
  H        11.7579227570        5.1576555762        1.0818726988
  C        12.1137178443        2.2772520448        0.5943467054
  H        13.9833479329        0.7625558193       13.9825632532
  H        14.6677810889        1.9440323581       14.9106579811
  C        12.5976310940        1.7653590933       15.2520817901
  C         6.9747213408        9.1583955570       15.9712278719
  H        13.2587508657        6.6651996282        5.9675565502
  H        13.4367570797        5.1922985750        5.0927007342
  C        15.0347528790        6.6163435729        4.7665986259
  H         8.3943099567        5.9895713071        3.6670032079
  H         9.1391660817        5.5602044749        2.1751068817
  C         7.9669793532        7.2853687400        2.0029033631
  C        12.2812915464        0.8808809052        0.4662818058
  C        12.3439197793        2.9973874093       -0.7077768363
  H        12.5387526889        0.8323483176       15.7313940187
  H        11.6376402045        1.8781079968       14.7102091076
  C        12.8186979197        2.9337169174       16.2515966573
  H         6.9298684454       10.2439262131       16.0039151444
  C         6.7363222234        8.5873862975       17.1912640899
  H        15.2237711695        7.6427172455        4.7675685764
  H        15.2642946229        6.2490804619        3.7675553551
  C        15.9649977009        5.8058905018        5.6926358956
  H         7.7698445250        8.0973106592        2.5937225009
  H         8.4952137543        7.5030488154        1.1090486099
  C         6.6264276277        6.6070588466        1.6458207103
  N        12.2067705965        0.0922286977        1.5360479513
  C        12.5164731188        0.1892209409       -0.7264506167
  C        12.5802867673        2.3385836338       -1.8973049305
  H        12.1912033754        4.1011684078       -0.6215986071
  H        13.7749096169        2.7818890167       16.7423521811
  H        12.0348193411        2.9513990433       17.0568813609
  H        13.1182408568        3.9009278971       15.7408571203
  S         6.5379179851        6.9243940576       17.4975233117
  C         6.6375137870        9.4359488839       18.4271672259
  H        15.3254747537        5.2603602531        6.3919372131
  H        16.5010814345        5.0189888908        5.1301372931
  C        17.0484157613        6.6100078153        6.5091525881
  H         6.1457880835        6.1342407559        2.5110377318
  H         6.7527554581        5.8061012010        0.9093189873
  C         5.5854462469        7.5766256256        1.2523454013
  S        12.3826857257       -1.4051842260        1.0500816393
  N        12.7676048420       -1.1028801508       -0.5280705738
  C        12.6623272275        0.8421092310       -1.9737670283
  H        12.6466923047        2.9156152022       -2.8433874788
  C         6.3114288478        7.4145034704       19.2089264809
  N         6.3487625439        8.6908676550       19.4927195776
  O         6.8778345025       10.6516132781       18.3783849950
  H        17.5257993921        7.2557526819        5.7735609582
  H        16.6045216497        7.2530283735        7.2353483576
  C        18.1762474357        5.7301594869        6.9818433762
  H         5.9404605544        8.1852475656        0.4493805961
  H         4.7488800507        7.0457892612        0.7623075825
  C         5.0052754018        8.2520942700        2.4332382986
  C        12.8622613944        0.0720998451       -3.1715897342
  S         6.3347519801        6.2721581917       20.5627089103
  C         6.3267407180        9.3198288139       20.8197307055
  H        17.9183146486        5.0252536019        7.8380849705
  H        18.3936208869        5.0648625799        6.2073162154
  C        19.3746202269        6.6324077421        7.2930361284
  H         5.7694797452        8.6030258817        3.1218418583
  H         4.4891474345        7.4954169892        2.9947205038
  C         3.9201233586        9.2500625271        2.0404348685
  H        12.4420552404       -0.9354839813       -3.0671243650
  C        13.4959277238        0.3259435733       -4.3183484771
  H         5.5069911090        8.8226739452       21.3655285055
  H         6.0368536103       10.3756262123       20.8139214797
  C         7.6889615662        9.1773481424       21.5652086940
  H        19.8695152810        6.2915071568        8.1444304062
  H        19.0164000199        7.6282133338        7.5142875618
  C        20.3867286381        6.7536450290        6.1631831404
  H         3.3057215435        8.8892171121        1.1628765898
  H         3.1678224460        9.3754140922        2.8554227226
  C         4.5348064802       10.6053744934        1.6201941838
  S        14.0888819611        1.8589668519       -4.7969916364
  C        13.5577135205       -0.6622241334       -5.3701877510
  H         8.4987759207        9.1700726046       20.8422919920
  H         7.6880104401        8.3081294873       22.2119738411
  H         7.8500506707       10.0883578325       22.2202182715
  H        20.7293328555        5.7311737880        5.9200446383
  H        20.0976402004        7.4785774074        5.3486338039
  H        21.3558770835        7.1600566028        6.6064036728
  H         4.8324603148       11.1019415898        2.5489225436
  H         5.3888333202       10.4673707218        0.9524135757
  H         3.7513347964       11.2011065557        1.1607068476
  C        14.3813258028        1.1915565645       -6.3883794468
  N        14.2195415944       -0.1715875914       -6.4342492563
  O        13.1824772310       -1.8130324321       -5.1815614142
  S        15.1352711260        1.9727313057       -7.7549781117
  C        14.4910234149       -0.9279478108       -7.6339448588
  H        14.6328869051       -1.9737182443       -7.3030803021
  H        15.2914509996       -0.6444236067       -8.2454102440
  C        13.2403342494       -0.8616162105       -8.5658902094
  H        12.9238245852       -1.8164769271       -8.8490354507
  H        13.3844218178       -0.4397484197       -9.5839545094
  H        12.3428158495       -0.4439301899       -8.0728234167
  H        -3.7967686770       15.1241653190       16.5161701113
  C        -3.5908446937       14.1547653790       16.1257961292
  H        -4.5051139979       13.5699595431       16.3710381940
  C        -2.4363099838       13.6221535772       17.0708115300
  C        -3.2119883207       14.1319569430       14.6958128891
  C        -2.7815056949       13.6369975475       18.6176115454
  H        -2.1654131919       12.6807209481       16.7529974428
  H        -1.6183458039       14.2686965461       16.8794562200
  H        -2.2148147761       13.8376466828       14.5515135463
  H        -3.9451575129       13.4152323396       14.2419335417
  H        -3.3947721129       15.0972760213       14.2336654006
  C        -1.5800090569       13.6147705178       19.5885078952
  H        -3.4646140001       12.8732569913       18.8450875823
  H        -3.2393653489       14.5826260165       18.8037880336
  C        -1.9034154618       13.5683325788       21.0433112853
  H        -1.0518186310       12.6932974406       19.3397625934
  H        -0.8196036339       14.4109929681       19.3743465846
  C        -0.8983447062       13.0006791902       22.0050136682
  H        -2.7852453348       12.9245209712       21.1592097787
  H        -2.3134178782       14.5383679723       21.3345568816
  C         0.2915084677       13.9621778911       22.2427517304
  H        -1.4011142825       12.9610251157       22.9966072789
  H        -0.5523079590       12.0181910833       21.6702780458
  C         1.4496039376       13.2168614196       22.9174301398
  H         0.7302094134       14.3520229008       21.2984889125
  H        -0.1000482619       14.7845218670       22.7816833021
  C         1.9345722065       11.8708368601       22.2862197452
  C         1.0488719137       12.4479371244       24.2111019806
  C         2.6488391321       14.1852586276       23.1847917129
  C         1.6059757324       10.7184005469       23.0145556998
  C         2.4803679186       11.5164783167       21.0463258263
  C         1.0785301889       11.0778913497       24.2660867705
  C         0.5628513733       13.0734258916       25.3141236744
  H         2.6847107499       14.8707922066       22.3637157426
  H         2.5330949065       14.7999866015       24.1609791314
  C         4.0044217409       13.4674081789       23.3015943308
  S         1.8076118578        9.2507442234       22.1229417922
  C         2.4659046807       10.1557102102       20.8142345832
  H         2.7205399790       12.2936013353       20.3469930407
  C         0.6380061491       10.4840526176       25.4187259926
  H         0.6707366249       14.1330221757       25.3104347909
  C         0.1933030177       12.4562525830       26.4898355670
  H         4.2980674736       12.8250688773       22.4666589366
  H         4.0157103019       12.8215350492       24.1421927291
  C         5.0317060579       14.5292463812       23.6847459042
  C         2.7988297866        9.5563910478       19.5053424478
  C         0.2077959277       11.1022192967       26.5675988250
  H         0.6839724472        9.3731171747       25.5085883706
  C        -0.3093928277       12.8517027266       27.6970719560
  H         5.6459258458       14.0669873060       24.4218694371
  H         4.5894969079       15.3146791985       24.3453325938
  C         5.9356361262       15.1047729690       22.6217699774
  C         2.8978635112        8.2099323133       19.1788430545
  C         3.3425214011       10.4240766804       18.4449698296
  C        -0.2199894319       10.4457444094       27.8886368829
  C        -0.5023183123       11.8203126300       28.5300522512
  S        -0.8063767710       14.4093798393       28.3187887879
  H         6.7395262898       15.7275335755       23.1062120007
  H         5.2710511165       15.8113469893       22.0816849593
  C         6.6086020907       14.1503876060       21.6022371637
  N         2.7059505661        7.2207410830       20.1602613108
  C         3.1728750540        7.7148268265       17.8903522722
  C         3.4960309964       10.0458158334       17.1398595996
  H         3.4623035582       11.4292899685       18.6978587923
  C         0.8847617456        9.6394542787       28.7371890750
  C        -1.4726770986        9.6369006482       27.6922304394
  C        -0.9605896969       12.2399154117       29.8302277634
  C        -1.1133440748       13.6331301351       29.9083587416
  H         7.6458777480       14.5915237044       21.4217537425
  H         6.9063847153       13.2114543985       22.0236268553
  C         5.8250917015       13.9076798113       20.2555930220
  S         2.7903873973        5.7705902092       19.3523010383
  N         3.2271684006        6.3256424062       17.8176753854
  C         3.3190968443        8.5961587313       16.7841013798
  H         3.8610253889       10.7788324994       16.4790786525
  H         1.1161122379        8.7018288635       28.2252784088
  H         0.4385983632        9.3041674442       29.6706494745
  C         2.1582753277       10.4935441746       29.0441552518
  H        -1.3222884213        8.8803539511       26.9744533636
  H        -1.6052110568        9.1288799454       28.7291475979
  C        -2.7038317983       10.4428265833       27.2880634167
  H        -1.0827266519       11.5087990107       30.6008855647
  C        -1.5444656498       14.3283350853       31.1235141589
  H         5.0379209419       14.6128622487       20.0246704504
  H         5.4057324347       12.9058988428       20.3308244661
  C         6.7232810323       13.9834818681       19.0297644098
  C         3.6251791251        8.0055665688       15.4882013011
  H         2.3783432858       11.2313854537       28.2467005681
  H         2.0841855928       11.0148037538       29.9412201220
  C         3.3027409359        9.4953031856       29.4440779547
  H        -2.3526329677       11.3198590648       26.7271052286
  H        -3.0970096190       10.8464595147       28.2181322696
  C        -3.8962475724        9.7389824678       26.7660702390
  C        -1.5286251799       15.7313924557       31.3468496424
  C        -1.7371821514       13.5455380755       32.3707588391
  H         7.2984488289       14.8601717187       19.0008315894
  H         7.4745550421       13.1932889652       19.0767468280
  C         5.9492896517       13.8267792426       17.7504573525
  H         3.6887783195        6.9111407180       15.4137604673
  C         3.9290701150        8.5932243548       14.2600404030
  H         3.3880436413        8.8267381079       28.5701574852
  H         2.9815170352        9.0018234801       30.3649376074
  C         4.6687535001       10.0932721064       29.6706729101
  H        -3.7841136847        9.1741197417       25.8264227117
  H        -4.1598929094        8.9254014938       27.3685934276
  C        -5.0657755830       10.6642958459       26.4372157224
  N        -1.3280071653       16.6720688171       30.3894427859
  C        -1.8285862011       16.2970926811       32.5556539643
  C        -1.9171452092       14.1041853283       33.6234959984
  H        -1.8123504292       12.4555860610       32.3162935386
  H         6.0909930234       14.8128788977       17.2179166407
  H         6.3777196212       13.0454844490       17.1010675025
  H         4.9049268860       13.6066137767       17.9605911728
  S         4.0701547485       10.2824112058       13.9336001694
  C         4.1942665767        7.6561799620       13.1530795865
  H         4.8962567715       11.0151547937       29.0749139184
  H         4.7383867715       10.4027288423       30.7459116755
  C         5.9157916645        9.1824644191       29.2958642312
  H        -4.6714957634       11.5283141155       25.8615324729
  H        -5.4675424852       11.1065307678       27.3675799289
  C        -6.1926130995        9.9510662845       25.7331041804
  S        -1.6885283326       18.1383434216       30.9683684532
  N        -2.0982067064       17.6906083639       32.4888736452
  C        -2.0147512755       15.5890293690       33.7690675087
  H        -1.9959246567       13.4233120482       34.4903047492
  C         4.4224718326        9.7874752620       12.3139787803
  N         4.4801844854        8.4183236724       12.0935307061
  O         4.1715254090        6.4424440395       13.1359184975
  H         6.7776663481        9.7868128509       28.8539608481
  H         5.6809608420        8.5521750864       28.3614781672
  C         6.3710943765        8.2776959676       30.4471773898
  H        -5.6648936279        9.4504173767       24.9156248428
  H        -6.6522635768        9.2698826408       26.5260269215
  C        -7.2901725095       10.9273854886       25.0973561041
  C        -2.2916562503       16.2764709742       34.9748210917
  S         4.7674584690       10.8944173486       10.9592951638
  C         4.4274177896        7.8264014246       10.7514189406
  H         7.3006313440        7.9370313173       30.0554867378
  H         6.5567684565        8.7786751132       31.3656584476
  C         5.4923507076        7.0377699885       30.6573348252
  H        -7.0343607297       11.1753615371       24.0648655367
  H        -7.3781165467       11.8994178098       25.5870962205
  C        -8.6573023579       10.2261416723       25.1223588672
  H        -1.9750392088       17.2658362618       35.0318534361
  C        -2.8833165147       15.9167293594       36.1493781712
  H         4.7531786843        8.5456244594       10.0475757625
  H         5.0046700994        6.9682656891       10.6076375311
  C         3.0198365103        7.5231317704       10.2603347445
  H         5.1038216088        6.7600459845       29.6913563795
  H         4.5449561653        7.2322106099       31.1623636014
  C         6.3093503421        5.8455023498       31.2482389900
  H        -9.4689548330       10.7435876779       24.5558441139
  H        -8.5867653574        9.2485340940       24.7213527143
  C        -9.2461779782       10.1833303201       26.5196378723
  S        -3.5068164302       14.3573386158       36.5013639585
  C        -3.0250564836       16.9870259732       37.1947885958
  H         2.3973797271        6.9957011126       11.0248675413
  H         2.4669421981        8.4212477422        9.9161865102
  H         3.0906780487        6.7617059232        9.4470674081
  H         6.9551439296        6.2006199733       32.1020946972
  H         6.9107608318        5.3612505765       30.4551961338
  H         5.6849485375        5.0009748288       31.4863797944
  H        -8.6478458030        9.3652013616       27.0092495388
  H       -10.3547660244       10.0359614903       26.5764930730
  H        -9.0818248865       11.1226312794       27.0842831254
  C        -3.9800367354       15.1094042815       38.0776733364
  N        -3.7470974099       16.4716769775       38.1747752977
  O        -2.7050720182       18.1333926213       37.1110393195
  S        -4.8026599890       14.2787381036       39.3885221208
  C        -4.0490934578       17.2902668660       39.3666967362
  H        -4.0911987485       18.3972724050       39.2806562609
  H        -5.1050013961       17.0425694993       39.6381522998
  C        -3.0475198606       17.0762868369       40.4567565054
  H        -2.1380715837       16.9468456254       39.9398580870
  H        -2.9766562232       18.0078191805       40.9812205148
  H        -3.2696580843       16.2280664226       41.0831757135
