352
i=
  H         5.5247767636        2.2368099554       12.7995701508
  C         4.4840994771        2.4996190156       13.1708769870
  H         4.2726473143        3.5753307615       13.0000615714
  C         3.6258705061        1.8575924112       12.1400514865
  C         4.2030262533        1.9554852346       14.5911974934
  C         4.0484967737        2.2672780136       10.6878594725
  H         2.6057843334        2.1601524332       12.3208814214
  H         3.6110226445        0.7937541269       12.3103978471
  H         4.0138417474        0.8836695076       14.4396241471
  H         3.2899973287        2.3791118512       15.0029935639
  H         4.7828814342        2.3292031290       15.4054209106
  C         4.8269079471        1.1672053155        9.9971181821
  H         3.1597262907        2.4707676365       10.0650812376
  H         4.5847650855        3.1883907985       10.6299171663
  C         5.4601743296        1.6651589993        8.6537684312
  H         4.1343442639        0.3622237868        9.7212316818
  H         5.5186713298        0.8924394586       10.7929985918
  C         6.7590857009        2.5773082327        8.7427936594
  H         4.6785231688        2.0463389225        8.0089561084
  H         5.7536303347        0.7242954117        8.1666345196
  C         8.0260963398        1.7878164880        9.1661910138
  H         6.8357811881        3.0774996065        7.8402271914
  H         6.6146648932        3.3574140606        9.4105816984
  C         9.2760520254        2.6730643224        9.4449083740
  H         8.1073536915        1.0191029003        8.3615432682
  H         7.8629392057        1.2874267517       10.0810568784
  C         8.8494175900        3.9773720522       10.1442952978
  C         9.6820863992        3.4076755575        8.1195398956
  C        10.4209499281        1.9735597880       10.1475841142
  C         9.0519594822        5.0818584601        9.3227874230
  C         8.2413017444        4.2743131402       11.4023923858
  C         9.5911031503        4.7338471806        8.0768114975
  C        10.1161170615        2.8070147538        6.9203839559
  H        10.0064559483        1.3387072503       10.9200519700
  H        10.8839490933        1.3841591200        9.3969421325
  C        11.3902974342        2.9740110093       10.8800014022
  S         8.5206458939        6.5644123651       10.0585168892
  C         8.0118099744        5.6331920329       11.4759684042
  H         8.0126592983        3.4707462288       12.0840406776
  C         9.9297477336        5.3981000208        6.9064449668
  H        10.2110349493        1.7269278755        6.8219438378
  C        10.4436276583        3.4704778036        5.7944299647
  H        10.8811586721        3.5902331668       11.6024764794
  H        11.8826685377        3.5873821185       10.1137155543
  C        12.4818176114        2.0905904463       11.5562370997
  C         7.4947147562        6.2680022243       12.7169401493
  C        10.3874164941        4.8221854546        5.7017332182
  H         9.6975764693        6.4406694581        6.9200691134
  C        10.8824167413        3.0747074349        4.5519570636
  H        13.4452967293        2.6116334050       11.4728791049
  H        12.6262509367        1.1984112706       11.0413655901
  C        12.1248349512        1.7041940829       12.9835717741
  C         7.4505755421        7.6644535658       12.9854455398
  C         6.9907600309        5.3519168632       13.7634076707
  C        10.7424767247        5.4913001846        4.4002761776
  C        11.0424903268        4.1811872254        3.7310035835
  S        11.2287330055        1.5966699566        3.8296078477
  H        11.5676572428        2.5088397413       13.4353821963
  H        11.3796069624        0.9113250431       13.0213481243
  C        13.3811243447        1.6207098626       13.8106425113
  N         7.7604983765        8.7321448431       12.0550574807
  C         7.2857369706        8.0977364915       14.2646309991
  C         6.6163863995        5.7746636578       15.0245996356
  H         6.8837838893        4.3211551587       13.6006339125
  C        11.9993276108        6.3864501698        4.4537598884
  C         9.4898783054        6.0194851324        3.6209099753
  C        11.3818910838        3.8217404963        2.4431282280
  C        11.4205232822        2.4151589864        2.3330222249
  H        13.6619706304        2.7073363017       13.9999396113
  H        14.0627741903        1.1629833954       13.1087850093
  C        13.2398713559        0.9835051286       15.2881227249
  S         7.9015345072       10.0796255080       13.0214944667
  N         7.5292113619        9.4604201118       14.4484088349
  C         6.9292067349        7.2100496800       15.3194284625
  H         6.1059917261        5.0635942746       15.7028325712
  H        11.7747887703        7.2931276234        5.0122128656
  H        12.2540167201        6.6961087584        3.3933828976
  C        13.1557152422        5.6139417108        5.1576270721
  H         9.3109372859        7.0907136181        4.0183640090
  H         9.6803951804        5.9999924600        2.5083792700
  C         8.2475962891        5.1186045503        3.8240954520
  H        11.4165819590        4.6147584817        1.6612133331
  C        11.7745201717        1.5828241638        1.1451437257
  H        12.8857465351       -0.1076709564       15.2498598586
  H        14.2883103899        0.8387681395       15.5087184596
  C        12.3533068122        1.8482026258       16.2851751507
  C         6.7370958556        7.8765834065       16.6067034801
  H        12.8099650381        4.9643014030        5.9851603596
  H        13.4641983811        4.8012043182        4.5429461922
  C        14.4524701502        6.4706426064        5.3865979011
  H         7.8844638393        5.1459652328        4.8381250402
  H         8.4730494846        4.0737459295        3.6236070767
  C         7.0553562962        5.5832341068        2.8973362013
  C        11.9259083521        0.1454391473        1.0494604543
  C        11.8867001144        2.2687935651       -0.1913220755
  H        11.2865276377        1.6273735958       16.2572057535
  H        12.4221568566        2.8562262731       15.9008851951
  C        12.8249509402        1.6967884521       17.7498002316
  H         6.8932140738        8.9695334429       16.5670749868
  C         6.5041611407        7.4602121945       17.9058964878
  H        14.0575721836        7.3397451703        5.9036468196
  H        14.9665677498        6.7219675834        4.4279209243
  C        15.4699337172        5.5399149548        6.0981937935
  H         7.2921117949        5.7927444253        1.8496671611
  H         6.3691147315        4.7457739541        2.8350138588
  C         6.1584576698        6.6360430469        3.4294115519
  N        11.8814412508       -0.6903837270        2.1736985060
  C        12.1925363395       -0.5299862467       -0.0876446069
  C        12.2550553540        1.5730687720       -1.3367470273
  H        11.7134343708        3.3185110377       -0.1363538584
  H        12.3906696719        2.4299500147       18.2734448139
  H        13.9501249498        1.8079488132       17.7633845051
  H        12.4585509079        0.7644235544       18.2035742007
  S         6.2347793935        5.8075471542       18.3713861365
  C         6.4118657663        8.4798203011       19.0191359059
  H        15.0604243341        4.7934860701        6.7671510214
  H        15.8983508232        4.9066397701        5.3071596029
  C        16.5810301945        6.2577571102        6.8753974951
  H         6.7083412314        7.3779851307        4.1063758442
  H         5.3835227053        6.1286380546        3.9766608905
  C         5.3794574261        7.4295386204        2.2881116438
  S        11.9989368196       -2.2382069188        1.6431986991
  N        12.4185345400       -1.8666704054        0.0867224901
  C        12.4663929254        0.0952927544       -1.3220859329
  H        12.3715023042        2.1178155897       -2.2568019025
  C         5.9885136914        6.5178526611       19.9775696908
  N         6.0372810113        7.8242473745       20.1212415662
  O         6.7396573378        9.6118877869       18.8709654960
  H        17.1344169768        6.7930831373        6.1292307036
  H        16.1614794355        6.9683979062        7.5595902226
  C        17.4939984358        5.3448146221        7.6901196851
  H         6.2195414402        7.9416807833        1.8245495049
  H         4.8616674601        6.8024418683        1.5739339916
  C         4.3471744830        8.4044336521        2.7990179686
  C        12.7419091633       -0.7275518172       -2.5314620244
  S         5.3679987944        5.6521178658       21.2661374169
  C         5.9648287624        8.5570919595       21.4039695750
  H        16.8828795189        4.9129756389        8.5531907914
  H        17.8052392624        4.4710798713        7.0980645852
  C        18.6991315463        6.0757955211        8.2374728464
  H         4.2685707522        8.4952968276        3.9297815473
  H         3.3319600539        8.0981628023        2.5276445731
  C         4.5066321264        9.8229329138        2.2416369376
  H        12.5942671388       -1.8015018424       -2.4885981738
  C        13.2074661030       -0.3689453056       -3.7701249496
  H         5.1132293814        8.2104241808       22.0421750392
  H         5.7454727349        9.5573403761       21.2423975693
  C         7.2830698350        8.4244062570       22.2358475553
  H        19.0862145966        5.5037344010        9.1194409842
  H        18.4100296400        7.0717872346        8.6116507319
  C        19.7748224126        6.2595380539        7.1079067455
  H         3.6270981664       10.5028930335        2.4339678025
  H         5.3190625369       10.3459664388        2.8222654663
  C         4.7369440818        9.8189978710        0.7633433774
  S        13.6735018970        1.2130107565       -4.2741619723
  C        13.3768679990       -1.4828235272       -4.7490570119
  H         7.2150459397        7.5857502636       22.9243061174
  H         7.4652246601        9.2345237047       22.8945618190
  H         8.1869613319        8.2880912120       21.5855025436
  H        19.3012056134        6.6444773789        6.2833673831
  H        20.7327268416        6.8464056808        7.4156117171
  H        20.1100948521        5.2691283138        6.7936678744
  H         4.6851508324       10.7658392521        0.2894733954
  H         5.7150624173        9.4214377857        0.4651103350
  H         4.0221807010        9.1718696304        0.2767522693
  C        13.8469329937        0.3737262904       -5.8622870240
  N        13.7593687954       -0.9246777080       -5.9101757498
  O        13.0693852830       -2.6545269670       -4.5789143157
  S        14.2857380521        1.2350196133       -7.3292783999
  C        13.6755640810       -1.6395953026       -7.1347683991
  H        13.7829421348       -2.7196702976       -7.0204192415
  H        14.5759999108       -1.4489272557       -7.7510177978
  C        12.3609217690       -1.3373502556       -8.0009860302
  H        11.9435288084       -2.2643007381       -8.4538121570
  H        12.7115268803       -0.5570099692       -8.6160052887
  H        11.5728482228       -0.8226700874       -7.4811454815
  H        -3.2776837979       14.8190015582       16.4650719811
  C        -3.0228662544       13.7484681742       16.4968814475
  H        -3.8772904430       13.2203451400       16.7133628910
  C        -2.0185859075       13.4082376229       17.5985984369
  C        -2.5645568886       13.2752946792       15.1630203433
  C        -2.4987504776       13.8950268981       18.9474798128
  H        -1.8521226488       12.3460532854       17.6500655569
  H        -1.0710803685       13.8306334285       17.3810033554
  H        -2.0147096425       12.3460110453       15.1677413239
  H        -3.4364019599       13.0692280588       14.4524154308
  H        -2.0086904702       13.9972016589       14.6343965069
  C        -1.6290092710       13.3164852377       20.0424813187
  H        -3.4989548556       13.7633549012       19.2112045904
  H        -2.3681747361       14.9894187282       18.8107530478
  C        -2.3343916192       13.2418667615       21.3780934939
  H        -1.2649491314       12.3711937732       19.7390358061
  H        -0.7288468414       13.9171773774       20.0891819834
  C        -1.4751901998       12.7816673087       22.4862482717
  H        -3.2597026336       12.5914343917       21.2401308495
  H        -2.7264360456       14.1638085878       21.7080316128
  C        -0.2152846180       13.5890305609       22.7256743075
  H        -2.0027179030       12.6740862950       23.4140182960
  H        -1.1914609215       11.7374550337       22.2861345014
  C         0.9710030241       12.7911734774       23.4291708112
  H         0.1081054357       14.0306542619       21.8020116638
  H        -0.4146892309       14.5290027803       23.3351634528
  C         1.3200644855       11.4776190114       22.7699113131
  C         0.6337327714       12.1533756501       24.6982649874
  C         2.2614964244       13.6080817241       23.4053636495
  C         1.1968259772       10.4125877878       23.6645925750
  C         1.7029503426       11.0481419502       21.5300582799
  C         0.7139211853       10.8281893111       24.8435949052
  C         0.2352718851       12.8434454466       25.8568114456
  H         2.4391524564       13.8178442007       22.3602312807
  H         1.9199321580       14.5210324769       23.8944354826
  C         3.4118850910       12.9792595369       24.1464266783
  S         1.7366352194        8.9161792061       23.0623891088
  C         1.9750519262        9.6799715739       21.5348925643
  H         1.6819161424       11.7031757262       20.6470920364
  C         0.2272371897       10.2617238516       26.0053717259
  H         0.3746813500       13.9503572068       25.9354996182
  C        -0.0819654474       12.1991907210       27.0378310034
  H         3.6625822282       11.9980191492       23.6265835168
  H         3.1203884430       12.7003599875       25.1349579451
  C         4.6031730751       13.9649849739       24.3337401451
  C         2.4481742304        8.9615224804       20.3064694074
  C        -0.2616767590       10.8711793832       27.1361509835
  H         0.2594389885        9.1058160594       25.9575630686
  C        -0.4579648532       12.6974298571       28.2807626196
  H         5.2857073180       13.5643128002       25.1304099467
  H         4.2496825979       14.8523173506       24.8129669355
  C         5.3846439950       14.1472114338       22.9941438161
  C         2.4135080150        7.5590210145       20.0778025341
  C         3.0048202646        9.7236263394       19.1319052029
  C        -0.7397523375       10.2827611101       28.4050668570
  C        -0.8956935190       11.6322713850       29.1206326996
  S        -0.6998238551       14.1986043823       28.9311766911
  H         6.1755466888       14.8881573157       23.1789524750
  H         4.7599064533       14.6104712657       22.1798640540
  C         6.0771283269       12.9516612242       22.4562660832
  N         2.0412810956        6.6227773793       21.0537496331
  C         2.7201701012        7.0141513502       18.8259810452
  C         3.2808481102        9.2188500559       17.9369229173
  H         3.0329256334       10.7991665045       19.1261322957
  C         0.3229615972        9.3661707209       29.0517266897
  C        -2.0835030583        9.6217778845       28.1531884434
  C        -1.4996822985       12.0874184905       30.2586611892
  C        -1.3226930547       13.4305699514       30.3790809154
  H         7.1351835483       13.1580204580       22.2520544007
  H         5.9672339940       12.0579831674       23.1087108199
  C         5.5811170781       12.5614364492       20.9973462274
  S         1.9780311757        5.1639497415       20.3040987777
  N         2.5152848736        5.6013824430       18.7836113690
  C         3.1277452800        7.7358102457       17.6579690061
  H         3.7279898617        9.9416114231       17.2879970972
  H         0.7639612422        8.6893937238       28.3452789006
  H        -0.1778267668        8.7316154436       29.7999480931
  C         1.4908036066       10.1404323967       29.8152124248
  H        -1.7588259667        8.7004768757       27.6922933155
  H        -2.3557281379        9.2110165399       29.0999580228
  C        -3.2293493403       10.4725950323       27.5556646286
  H        -2.0548225508       11.3850367898       30.8215853381
  C        -1.6497861170       14.1942535640       31.6088499487
  H         4.4445563897       12.3654037896       21.0442080841
  H         6.0285809119       11.5815198106       20.7945968769
  C         5.8408345889       13.5425017843       19.8760553409
  C         3.2686227459        7.1564752926       16.3968322362
  H         1.8917290421       10.9217536718       29.1186191982
  H         1.1297331469       10.5754724252       30.6848250082
  C         2.6546143549        9.1237683332       30.1117600168
  H        -2.9493458178       10.9740796710       26.6122831364
  H        -3.5727909136       11.2369371142       28.2436192831
  C        -4.5241525009        9.6834521379       27.2238902438
  C        -1.7593693652       15.6014573203       31.6716277050
  C        -1.8142868250       13.5489289527       32.9639409992
  H         4.9681251770       13.5977781814       19.1651443458
  H         5.8767352486       14.5800809819       20.1701422079
  C         7.1267278501       13.2652402156       19.0355049228
  H         3.1444474813        6.0738135649       16.3942398750
  C         3.6560623296        7.5404532877       15.1151518851
  H         2.9957265666        8.7487306902       29.1784340049
  H         2.2045824886        8.2682609521       30.6115040259
  C         3.7522780934        9.9099946865       30.8570158168
  H        -4.1292050418        9.0055252933       26.4833964623
  H        -4.9549480557        9.1914669662       28.1301747594
  C        -5.4719051347       10.5714858520       26.4696318607
  N        -1.4129201896       16.4498684526       30.5874331237
  C        -2.0902789098       16.3103485078       32.8451356783
  C        -2.1094934203       14.2480004227       34.1052489693
  H        -1.6322579379       12.4664098224       33.0506019941
  H         7.3481111932       14.0818142474       18.3396869353
  H         7.9544266285       13.1143670291       19.7300214604
  H         7.0103426941       12.3471658538       18.5305683183
  S         3.8953670701        9.1562596763       14.7405158824
  C         3.5606935136        6.6137142821       13.9824328783
  H         3.8710001323       10.9613303476       30.5286158645
  H         3.2491460013        9.9832519880       31.8292231955
  C         5.0763336944        9.1840536808       30.8909474260
  H        -4.8847503307       10.9715108162       25.6185705882
  H        -5.8196106051       11.3489770437       27.1526084933
  C        -6.6528464410        9.7594791673       25.8258626159
  S        -1.6597711768       17.9842123970       31.0618360466
  N        -2.1793513793       17.6920797033       32.6294094569
  C        -2.3196916731       15.7140301333       34.0452358598
  H        -2.2644781025       13.7715637073       35.0691739916
  C         4.1857853715        8.6221614080       13.1476916794
  N         3.9064041594        7.2896036731       12.8904810799
  O         3.0918427187        5.4956543176       14.0756317034
  H         5.7105383119        9.8947107179       31.3485812149
  H         5.4524102591        9.1783495773       29.8246799944
  C         4.9789652948        7.8373663909       31.6043879785
  H        -6.2359316306        9.3462220074       24.8501939231
  H        -7.0255099533        8.9787318019       26.4769681453
  C        -7.7994811148       10.7261940224       25.5557635770
  C        -2.6348199811       16.5307994436       35.1826169165
  S         4.5085491753        9.8041642255       11.8374101926
  C         3.8775360598        6.5732149829       11.5841543385
  H         5.8500453235        7.7627594274       32.1542735401
  H         4.2406834160        7.8278656409       32.3839881756
  C         4.8591915152        6.6130790441       30.6574935514
  H        -7.5265400394       11.3083255273       24.6977506746
  H        -7.8932420898       11.3691070483       26.4403587174
  C        -9.0337206710       10.0445164060       25.1425133862
  H        -2.5959377435       17.6083013237       34.9575406598
  C        -3.0672567291       16.2564237424       36.4490185485
  H         4.7312452638        6.9970468080       11.0874161622
  H         4.1835054681        5.5733980329       11.5379237434
  C         2.5699468822        6.8115046100       10.8284682805
  H         4.4889633344        6.9903514356       29.7407713529
  H         4.1067120283        5.8216906858       30.9018646767
  C         6.1783343749        5.9960812514       30.2690375892
  H        -9.5193230840       10.6519992837       24.4056176714
  H        -8.7533429736        9.0836106915       24.6943162390
  C       -10.1053683665       10.0248255110       26.1568887680
  S        -3.4996921765       14.7315864826       37.1712529958
  C        -3.2192781742       17.4469485011       37.3331643628
  H         2.3443239482        5.9147162691       10.2873085515
  H         1.7676058594        6.8277579667       11.6108677078
  H         2.4934572289        7.7008968452       10.2189899274
  H         6.5750709880        5.2175399004       30.8687193853
  H         6.9105999745        6.7703636230       30.1400206182
  H         5.8972746922        5.5354446714       29.2741308628
  H       -10.2927488987       11.0565868097       26.3968916558
  H       -10.0674629920        9.2963033398       26.9784166352
  H       -10.9966408764        9.7810657613       25.6339767500
  C        -3.8372069502       15.6975845873       38.6360372802
  N        -3.7414218132       17.0022637039       38.5399819896
  O        -2.9900767013       18.6467047192       37.0176606375
  S        -4.4295745611       15.0729847309       40.2152056995
  C        -3.9724931454       18.0277560353       39.6361864614
  H        -4.3590613923       18.8520511947       39.0520576414
  H        -4.7755968055       17.6584959141       40.2776030954
  C        -2.6802743129       18.4231999730       40.2754475311
  H        -2.9327713141       19.2658724731       40.8089993559
  H        -2.2074423119       17.6763828108       40.8937418249
  H        -2.0977273367       18.8594216621       39.4564649212
