352
i=
  H         3.2868500501        2.8055466360       12.6912300266
  C         3.7910795068        1.9191921188       12.4416646192
  H         3.4520605427        1.1223212028       13.0924736701
  C         3.3487197949        1.4317046923       11.0359089231
  C         5.2964811316        2.0057742044       12.7976794505
  C         4.1434787532        2.1396938020        9.9335292297
  H         2.2815870109        1.6451167868       10.9557198158
  H         3.3685319090        0.4172236958       10.8170337033
  H         5.7322871573        2.9095397579       12.4109898785
  H         5.9093650323        1.1401849123       12.3323415604
  H         5.4531199803        1.9527249942       13.8792976817
  C         4.9715045893        1.1040288528        9.2694317818
  H         3.5935844534        2.8479518778        9.2481451988
  H         4.7763822156        2.8599771868       10.4249988163
  C         5.7565948341        1.4820585802        8.0302522950
  H         4.4067808515        0.1904525628        9.0986622269
  H         5.6862621241        0.6525232895        9.9557881043
  C         6.8845812635        2.4029666088        8.3201850741
  H         5.0891065820        1.9730024279        7.2791802552
  H         6.0297132674        0.6720728015        7.4649917648
  C         8.1408228507        1.7651185139        8.9020547760
  H         7.0812410993        2.8452076179        7.3900927618
  H         6.4712034548        3.1919744679        8.9341765231
  C         9.2763402695        2.8289346856        9.1891137377
  H         8.4777475668        1.0473300749        8.1324072216
  H         7.9282553052        1.2946726839        9.9249462569
  C         8.7512318051        4.0674859441        9.8594977787
  C         9.7006030471        3.5043709922        7.9167374963
  C        10.5264674142        2.1614648190        9.9021048211
  C         9.0520308439        5.2231899620        9.0628088257
  C         8.2824475900        4.4208164041       11.1564899579
  C         9.5396744670        4.8623199758        7.8153341582
  C        10.1350537180        2.8541565442        6.7512622636
  H         9.9503306887        1.7279513338       10.7733855056
  H        10.9973948822        1.2978857681        9.3537379473
  C        11.6369847223        3.1296367270       10.0397168997
  S         8.6062055790        6.7094497512        9.8891934163
  C         8.1544774851        5.7739415833       11.2741665002
  H         8.0294347619        3.6746334692       11.8591400049
  C         9.9482749869        5.4653436494        6.6746029596
  H        10.1858483544        1.7836351750        6.7538803793
  C        10.4825271362        3.4895682810        5.5684402371
  H        11.2491772098        4.0495325023       10.4575874612
  H        12.0880878963        3.3453151418        9.0981374045
  C        12.6272033598        2.6331447701       11.0647899179
  C         7.7585430148        6.4275307205       12.6163177746
  C        10.3413434980        4.8259892565        5.4842443355
  H         9.9677325073        6.5818800832        6.6201730020
  C        10.8645894456        3.1151478994        4.2762753031
  H        13.4410175540        3.3959443939       11.1194443984
  H        13.0224714025        1.6498379118       10.6975614406
  C        11.9882185593        2.5152536071       12.4408704864
  C         7.7885459690        7.8132757001       12.8619633386
  C         7.1906330347        5.6097962362       13.6688347376
  C        10.7550688435        5.5223069838        4.2005969397
  C        11.0645646421        4.2273975450        3.4790618289
  S        11.2699555013        1.6668624643        3.5194876610
  H        11.5148226845        3.4198340511       12.6048327357
  H        11.1752255855        1.8174362551       12.4868807434
  C        12.9105506520        2.2388838384       13.5970406238
  N         8.0964157255        8.7607507951       11.8845032234
  C         7.4758959426        8.4267280574       14.0303488694
  C         7.0229099471        6.1875293884       14.9170382140
  H         6.9561139255        4.5766131678       13.5220895875
  C        12.1469791413        6.2694953359        4.4109152494
  C         9.6144403816        6.3208622718        3.5309722101
  C        11.5031300796        3.8618478907        2.1903689361
  C        11.6029674007        2.4770306779        2.0653011509
  H        13.9402621441        2.6120585066       13.3159126337
  H        13.0449707022        1.1690387167       13.5472888059
  C        12.3170362227        2.7902495622       14.9409455343
  S         8.0202825923       10.2727352621       12.5186126690
  N         7.5794284271        9.8366647917       14.0345532179
  C         7.1444637661        7.6240642648       15.1738817486
  H         6.5956851272        5.5038766699       15.6769240848
  H        11.8996518663        6.9162018760        5.1999915122
  H        12.5011423737        6.9247448496        3.5617990107
  C        13.3914520129        5.4284514143        4.8278874976
  H         9.2592683049        7.1135891270        4.2273528219
  H         9.8834148097        6.9371092105        2.6545582727
  C         8.4655902120        5.5248534407        3.0056021480
  H        11.6722527574        4.6577464565        1.4650662740
  C        11.8596457124        1.7416636145        0.7306556568
  H        12.3642649580        3.8521087446       14.7371818373
  H        11.2655590122        2.4265962772       15.0265620573
  C        13.1786382248        2.3977536137       16.1938747569
  C         6.8017468319        8.2673521414       16.4391357706
  H        13.1889494543        4.7068363923        5.6510754167
  H        13.5962550130        4.6837136228        4.1098931290
  C        14.6838523338        6.2670391619        4.9765963783
  H         8.2867108626        4.6261930439        3.5615824623
  H         8.7418954329        5.3004867132        1.9649472244
  C         7.1053016483        6.3389858260        3.0511536799
  C        12.0086395715        0.3555737382        0.6056285588
  C        12.0308362952        2.5383633192       -0.5745252615
  H        14.0643632581        2.9233470621       16.1078845736
  H        13.5116669323        1.3785544312       16.1787584266
  C        12.4964295642        2.6701927020       17.5315114165
  H         6.8641888376        9.3443405789       16.4058979364
  C         6.3837111758        7.8858709653       17.6947809628
  H        14.4757083795        6.9311147603        5.8071662725
  H        15.0441810837        6.8753907332        4.0976370006
  C        15.8220894111        5.4621603460        5.5827670665
  H         6.8249763502        6.6609470686        4.0729659347
  H         7.2212201584        7.1465396094        2.4711857828
  C         6.0046101548        5.5324581996        2.4979526742
  N        11.9638571558       -0.4904985591        1.6543233937
  C        12.2560746306       -0.3091375432       -0.5669483012
  C        12.2385424782        1.8919433057       -1.7924532573
  H        11.8801633356        3.6028372313       -0.6384280072
  H        11.5049628013        2.2006032104       17.4488634620
  H        12.3411068942        3.6866656559       17.7260611923
  H        12.9164153023        2.1266646018       18.3440070589
  S         6.0060926874        6.2766975559       18.2328756359
  C         6.2980084183        8.9341342413       18.7637772421
  H        15.3968488888        4.9348627898        6.3790119895
  H        16.2114773077        4.7639971584        4.8580243382
  C        17.0178972681        6.1717319276        6.0784504787
  H         5.1748696839        5.4714895339        3.2324596000
  H         6.4490583328        4.4801937759        2.4156637518
  C         5.4211123643        6.0306963627        1.1482278064
  S        11.9885317235       -2.0160987085        1.1110555933
  N        12.4500011232       -1.6797567914       -0.3867916749
  C        12.3401405976        0.3582587343       -1.8457176251
  H        12.3287687756        2.5045844526       -2.6923574790
  C         5.8773156405        6.9628679003       19.8585707298
  N         5.9766386074        8.2986702841       19.9132708655
  O         6.5583937077       10.1349839742       18.6105728592
  H        17.7303570569        6.3652455061        5.2801149967
  H        16.6899609874        7.1315332949        6.4980824667
  C        17.6409581218        5.2464366119        7.0736278820
  H         6.3099560319        6.2567745195        0.5184707911
  H         4.7815442081        5.2360351746        0.7291990680
  C         4.4609783585        7.2499005734        1.2826134275
  C        12.6269319468       -0.3592218088       -3.0096031676
  S         5.7368140322        6.1000770861       21.3044692323
  C         5.9926604162        9.1085259169       21.1199933462
  H        17.0810945987        4.9122595484        7.8780663805
  H        17.9284380275        4.3365446199        6.5620179919
  C        18.7387323564        5.9129445086        7.8669125814
  H         4.4874211284        7.6642830383        2.3449657647
  H         3.5014118894        6.8468511846        1.2083930989
  C         4.7661701523        8.3059977644        0.2752816942
  H        12.3301562510       -1.3354733172       -2.8602323490
  C        13.3175682003        0.0239565301       -4.1109993151
  H         5.4980726967        8.5975109924       21.8823799501
  H         5.4819372739       10.0669025254       20.9693705290
  C         7.3907513909        9.2716383043       21.7491973887
  H        18.8781512809        5.4745816005        8.8626069814
  H        18.4832848034        6.9640415350        8.0344825360
  C        20.0256197610        5.9118418939        7.1709287120
  H         5.7758555804        8.2689784652       -0.0125345354
  H         4.1107804011        8.0136908462       -0.4888316153
  C         4.4330819550        9.7070061888        0.6610062954
  S        14.2436362163        1.4368567025       -4.3772869893
  C        13.2297379524       -0.8945527509       -5.2512142434
  H         8.0716848523        9.1676383089       20.9006280002
  H         7.5804555823        8.3645415190       22.3653969576
  H         7.5713598286       10.3175072960       22.1539989851
  H        19.8976771990        6.2851131103        6.1878677102
  H        20.7280797881        6.5888099470        7.6916053208
  H        20.4820291374        4.9058184136        7.1158131702
  H         4.3211466015        9.7873365171        1.7334431204
  H         5.2324177662       10.4346722626        0.3223903404
  H         3.4809749681        9.9522859095        0.1645669306
  C        14.6394992288        0.7696436089       -5.9019875086
  N        14.1606990691       -0.5018143522       -6.1647791510
  O        12.5379580148       -1.8995009112       -5.3929639515
  S        15.3241249276        1.6555352339       -7.2231097686
  C        14.1676309735       -1.1687007174       -7.4921930645
  H        14.2193985155       -2.2694347695       -7.4348213756
  H        15.0716466996       -0.8808013782       -8.0320309652
  C        13.0249040739       -0.6441170435       -8.3664355447
  H        12.9733815069       -1.2993455663       -9.2312195801
  H        13.2191043273        0.3268124847       -8.8311670097
  H        12.0771254766       -0.5213662804       -7.8070800827
  H        -1.4815460135       13.2318774661       17.3400776177
  C        -2.2217720186       13.8207144140       16.7825197956
  H        -1.5821124947       14.6218248535       16.3414062111
  C        -3.2513993988       14.2463978754       17.8204791365
  C        -2.8497957250       13.2129351989       15.5159711861
  C        -3.3204655389       13.4060741431       19.0054673196
  H        -2.9959536359       15.2373252811       18.1685940510
  H        -4.2829439858       14.3041426237       17.4328514530
  H        -2.1393585853       12.6405176595       14.9715185702
  H        -3.5708720323       12.4028269510       15.7742763172
  H        -3.3174274893       13.9788272426       14.9103240343
  C        -2.0864388342       13.3611887560       19.8597070864
  H        -3.7303572659       12.4085263170       18.7736931853
  H        -4.0925298509       13.8795034830       19.6655915902
  C        -2.4879616872       13.0646670979       21.3127293078
  H        -1.3141579569       12.6107960014       19.6120303086
  H        -1.5663567364       14.3668143674       19.7455899206
  C        -1.4096235821       12.5729957038       22.3484762939
  H        -3.2898324123       12.2996560089       21.1685221202
  H        -2.9516828055       13.9920254553       21.6752877049
  C        -0.2712750541       13.5719872030       22.5133223132
  H        -1.8840962615       12.5175699926       23.3124261216
  H        -1.0506682408       11.5843513881       22.0426224426
  C         1.0222592094       13.0352371431       23.1945151651
  H        -0.0072613270       14.1085267975       21.6148324122
  H        -0.6521992264       14.2538042006       23.2700911678
  C         1.3903741315       11.6728369768       22.5749564832
  C         0.6270150472       12.3548591718       24.5514455305
  C         2.2043114041       14.0297896208       23.2104952947
  C         1.0781892796       10.6081327410       23.3973305472
  C         1.9020699270       11.2702893948       21.2778512833
  C         0.5367100999       11.0396442438       24.6390549412
  C         0.1837156882       12.9943408178       25.7237879099
  H         2.4477963795       14.4649592015       22.1929462059
  H         1.9253410493       14.9075589934       23.8568561051
  C         3.5342981602       13.5136120964       23.7823709941
  S         1.4353135615        9.0860644101       22.6638914992
  C         1.9106005598        9.8837290383       21.2030906856
  H         2.1114813575       12.0315786355       20.5206214367
  C         0.1371247265       10.4092465015       25.7185910932
  H         0.1446181203       14.0531772952       25.6962450422
  C        -0.2888604083       12.3301536950       26.8267595756
  H         3.7992569248       12.7568362656       23.0588428933
  H         3.3853156194       13.0924200692       24.7153992465
  C         4.5794471746       14.6008535564       24.1710932019
  C         2.4525513479        9.1262130122       20.0271695227
  C        -0.3518801121       10.9902822309       26.8679354602
  H         0.0613323541        9.3506179947       25.7415213364
  C        -0.7269490172       12.7302559428       28.0908160596
  H         5.2389943397       14.1720599362       24.8469180905
  H         4.2018936012       15.4632110631       24.7516480819
  C         5.3527111487       15.0849168794       22.9183841493
  C         2.3759939723        7.7229732683       19.8643707298
  C         2.8758520690        9.8637317259       18.8199850669
  C        -0.7488085267       10.2523093009       28.1391161314
  C        -0.9055110513       11.6045720549       28.9202846209
  S        -0.9744294942       14.1933284648       28.8290583951
  H         6.0197790362       15.7489951296       23.3441752150
  H         4.6705135861       15.5397904466       22.2227286214
  C         6.1429684027       14.1591400672       22.0395046003
  N         2.0546069761        6.8061616275       20.8212290757
  C         2.7028009178        7.1009756131       18.6420646812
  C         3.1819123299        9.2074012868       17.6118849301
  H         2.9611028845       10.8718627033       18.8605363027
  C         0.3823765388        9.4916589854       28.7528368905
  C        -2.1318454387        9.5383280150       28.1082025242
  C        -1.4578610678       12.0027843178       30.1341942783
  C        -1.3930797571       13.3740302700       30.2881441782
  H         7.1562724790       14.5386602623       21.7418290354
  H         6.2635411894       13.2206446203       22.6093036615
  C         5.3067987963       13.8782357455       20.7873177229
  S         2.1932434797        5.3095078635       20.1649472971
  N         2.5102245195        5.7141279434       18.6524973705
  C         3.1105471644        7.7623828107       17.4850357402
  H         3.3926838847        9.7816439173       16.7386318447
  H         0.5461517791        8.6800280055       28.1038261413
  H         0.0857822269        9.1822390483       29.7622632198
  C         1.7507507958       10.1509901447       28.9278932349
  H        -2.1210857383        8.5937799523       27.6128343720
  H        -2.6197545569        9.2983669145       29.0495518159
  C        -3.2594163250       10.4472943837       27.4527716639
  H        -1.8999365576       11.2340641482       30.8295066199
  C        -1.5759918719       14.1374769280       31.5537900019
  H         5.2174731816       14.8089058465       20.2914706444
  H         4.2681505895       13.5319336226       20.9231725611
  C         5.9401422652       13.0018177151       19.7604283614
  C         3.2814053488        7.0668925518       16.2646712249
  H         1.9507125715       10.6291413622       27.9872066613
  H         1.5113497671       10.9528268527       29.6390787069
  C         2.8410221399        9.3213014384       29.6477445250
  H        -2.9157888442       10.9937584808       26.5390057653
  H        -3.5887655517       11.2724031573       28.0962266024
  C        -4.4761735155        9.6381222205       26.9783008116
  C        -1.6543589478       15.5187840349       31.7556217353
  C        -1.7654316726       13.3102620272       32.7477636874
  H         6.0249319197       12.0854130141       20.2503158061
  H         5.3524938469       12.8114600350       18.9204563494
  C         7.3537909637       13.3769991642       19.3345649912
  H         3.0940961151        6.0039936591       16.3375005339
  C         3.5605531462        7.4966121303       15.0105094284
  H         2.9960414220        8.4338545578       29.0068396790
  H         2.3779442905        8.8873011323       30.5917055236
  C         4.1598543987       10.0600041078       29.9946177410
  H        -4.1424526949        8.9867004736       26.2794016350
  H        -4.9356272465        9.1144514141       27.7708078248
  C        -5.3915445144       10.5906561369       26.2178774168
  N        -1.2417549668       16.4554665923       30.8106484676
  C        -1.8589928750       16.1375734893       32.9464764222
  C        -2.2615119533       13.8929321388       33.8890138213
  H        -1.6421221519       12.2447656964       32.7525354078
  H         8.1191892210       12.9941466381       20.0332431471
  H         7.4021735163       12.8967963895       18.2957307224
  H         7.4707080189       14.5056765293       19.1661032874
  S         3.8009812158        9.1289799090       14.4550793819
  C         3.6569257727        6.4276193178       13.9470065230
  H         4.4292741310       10.9110057656       29.3793930925
  H         4.1516647541       10.5322639716       30.9978974813
  C         5.3420534085        9.1089908209       29.7935815815
  H        -4.9835762639       10.8483078868       25.2273919294
  H        -5.5852125515       11.5060054130       26.7572819498
  C        -6.6252400204        9.8398737586       25.9734072848
  S        -1.1133008602       17.9253903079       31.4473274773
  N        -1.7330795604       17.5335664886       32.8926976301
  C        -2.2307303666       15.3673297520       34.1136045767
  H        -2.5640069874       13.3405965921       34.7729858168
  C         4.2492850039        8.4079366035       12.9331949345
  N         4.0819057800        7.0748754721       12.8101447675
  O         3.3721068726        5.2280769516       14.0044578971
  H         6.2384745902        9.8016118319       29.9187414216
  H         5.4361242562        8.6426965037       28.8328594966
  C         5.4438565389        8.1830171282       30.9851186986
  H        -6.3966710371        8.8451596860       25.4680410532
  H        -7.1101620598        9.5649068850       26.8752371165
  C        -7.6705802758       10.6388552504       25.1294262717
  C        -2.5867243655       16.0524253780       35.3298143056
  S         4.7252481466        9.3385751427       11.4135239479
  C         4.2042794430        6.3697451086       11.5329954878
  H         5.7181035323        8.6766489020       31.9386204889
  H         4.4603701646        7.7086112832       31.2008194293
  C         6.4201020610        7.0749598713       30.5712514115
  H        -7.2476720181       11.0429985758       24.2073585144
  H        -7.9117325149       11.5939383071       25.6806605068
  C        -8.9553188897        9.8908978297       24.7628447262
  H        -2.4659312279       17.1139363785       35.1795243392
  C        -3.1008430520       15.7506027654       36.5459111927
  H         4.9944906855        6.8070461124       10.7954472190
  H         4.7681889952        5.4480471450       11.7884114861
  C         2.8312699220        6.1050496082       10.9090112834
  H         7.2268306400        7.5649807585       30.0540038274
  H         5.9508427916        6.4741995690       29.7740353425
  C         6.9915056242        6.1681931606       31.7320443317
  H        -9.4907949553       10.4067022952       23.9374708217
  H        -8.6523546005        8.8637701005       24.4975202838
  C        -9.8115520546        9.7165048582       26.0063192589
  S        -3.5636065997       14.1949077311       37.1149302049
  C        -3.2560442523       16.8434207168       37.4828958457
  H         2.5348067433        6.8475244712       10.1275148290
  H         2.8111740929        5.1991107163       10.3397103270
  H         2.0237044788        6.0497239139       11.6593248546
  H         7.4425863460        6.7307302826       32.5592362180
  H         7.6397400690        5.3481384545       31.4573549808
  H         6.1452361794        5.6773940703       32.1809252277
  H        -9.9880417810       10.5867747627       26.6300177700
  H        -9.2960563081        9.0002137580       26.5920348209
  H       -10.8096742388        9.2694405390       25.7593695838
  C        -4.0195494320       15.0359054865       38.5572938291
  N        -3.9239082536       16.3925183296       38.5485936630
  O        -3.0271405775       18.0367845618       37.2611572498
  S        -4.5626009437       14.3698871604       40.0879587920
  C        -4.1201157076       17.2648317300       39.6761207549
  H        -4.3315606749       18.2647150483       39.2326173688
  H        -5.1512801943       17.0750987421       40.1140938638
  C        -2.8730609604       17.2168718462       40.6619778741
  H        -2.6602642074       16.2591960963       41.1586792926
  H        -1.9733046350       17.5163964395       40.1505463705
  H        -3.0027188772       17.9676380107       41.3727218130
