352
i=
  H         4.3465278376        3.2490325728       13.1652550336
  C         3.4281885837        2.9689058927       12.6470074658
  H         3.2736000972        3.8667671067       12.0680122763
  C         3.6934237213        1.9098967228       11.5657974161
  C         2.4776803551        2.4891849119       13.7832701394
  C         4.1972374736        2.5366267882       10.2200197609
  H         2.7348609953        1.4595718550       11.2763753365
  H         4.5646493745        1.2824795122       11.8850223391
  H         1.7918316850        3.2942114024       14.1035269870
  H         3.0615039569        2.1616931001       14.6871725415
  H         1.7064744810        1.7387101700       13.5333013830
  C         5.1166777961        1.5502252575        9.5203383396
  H         3.3669818540        2.6697631657        9.4968310488
  H         4.5778237817        3.5322696265       10.2274852026
  C         5.7739158300        2.1254401937        8.1781399419
  H         4.5551818666        0.6403410720        9.2883075469
  H         5.9200287883        1.3670177023       10.1951160901
  C         6.9915163824        2.9539858757        8.5894953632
  H         5.1323585293        2.7625716780        7.6207915139
  H         6.1297453668        1.3803399027        7.5162863899
  C         8.1967759084        2.2062927077        9.0760672762
  H         7.2758213654        3.6698071586        7.7967104784
  H         6.7524177784        3.6287410478        9.4169534429
  C         9.5044051368        3.0719514163        9.2514249701
  H         8.4005318852        1.2839086113        8.5928844285
  H         7.9540537070        1.8596611323       10.0631575753
  C         9.0969542892        4.4033486533        9.8627716053
  C         9.9473291142        3.7514471117        8.0363189500
  C        10.5728153286        2.4533177427       10.1314073279
  C         9.4888716657        5.4601516283        9.1465246518
  C         8.5772461331        4.8140475378       11.0428717298
  C         9.9730164568        5.0823915672        7.9215264522
  C        10.4282187049        3.0913208894        6.9610770128
  H        10.1009150044        2.1964203817       11.1102413081
  H        10.9019434479        1.4989440705        9.7743332108
  C        11.8054268232        3.3210772852       10.3193946431
  S         9.1900656445        6.9805223174        9.8191411552
  C         8.5499318401        6.1666376542       11.1906215470
  H         8.3041094248        4.0676895080       11.8280921042
  C        10.4122331143        5.7049916068        6.7925942574
  H        10.4149271830        2.0404694563        7.0829350565
  C        10.8031551254        3.7095707156        5.7633493527
  H        11.4979944313        4.2347318262       10.6343274759
  H        12.3651947496        3.4964687651        9.3997867251
  C        12.8173644810        2.6541590623       11.2065411875
  C         8.0202795118        6.8658225206       12.4211604246
  C        10.8034821217        5.0663861757        5.6668569227
  H        10.4242382751        6.7837958566        6.8372107959
  C        11.2616454520        3.3222328407        4.5434722469
  H        13.7897537474        3.1554072426       10.9534335773
  H        12.9006254609        1.5403004906       11.0217345021
  C        12.4646008628        3.1057335146       12.6436964333
  C         8.1207784905        8.2586049751       12.6203095432
  C         7.6518591114        5.9913287149       13.5891751324
  C        11.3429840634        5.6852256632        4.3622355885
  C        11.6609905408        4.3357239028        3.7185804508
  S        11.5555909656        1.8245551267        3.8319537113
  H        13.1607036055        3.7911748680       13.0541670061
  H        11.4697598821        3.5066091771       12.7931285596
  C        12.5363120354        1.9426902868       13.6697070596
  N         8.4171469625        9.2214555156       11.7542799948
  C         7.8262484702        8.8524420259       13.8476977515
  C         7.4022213872        6.5792243310       14.7720261156
  H         7.8977600784        4.8968486017       13.5577844390
  C        12.7014516294        6.4450106218        4.7057327050
  C        10.2652383697        6.5760247755        3.5697258356
  C        12.0879289127        3.9663730946        2.4308501415
  C        11.8817497510        2.6140463988        2.2100768059
  H        13.3911955260        1.2562643489       13.3843183981
  H        11.6611317812        1.3981019053       13.5210407078
  C        12.8573295311        2.4367660360       15.0895479849
  S         8.3284383428       10.7262838359       12.4028904710
  N         7.9675465723       10.2615304199       13.8773587977
  C         7.4258832758        8.0749683093       14.9508506425
  H         7.1252729951        5.9245211142       15.5886592592
  H        12.5766000871        7.2391786438        5.4334053516
  H        12.8683859956        6.9701589305        3.7239455538
  C        13.8615397691        5.5477464025        5.0988310311
  H         9.8254054938        7.3171380787        4.2878431908
  H        10.8285395090        7.1666731118        2.8156985827
  C         9.1321306975        5.7884115889        2.8638729820
  H        12.2728832685        4.6444913542        1.6881876399
  C        12.0819752385        1.8366021503        0.9518500896
  H        13.8133371371        2.9293205691       15.1187404737
  H        12.0680286931        3.1797060262       15.3312859687
  C        12.9068707108        1.3963474276       16.1810054108
  C         7.2254838410        8.7364858359       16.1927437379
  H        13.5151095295        4.8648645158        5.9165509264
  H        14.1111404052        4.8219592263        4.2470727034
  C        15.1285194197        6.3966138048        5.3965669423
  H         8.6357441988        5.1847441377        3.6199897792
  H         9.5602784129        5.1087263148        1.9951770771
  C         8.2308443371        6.8193955731        2.1832708154
  C        12.2062637708        0.4946577734        0.8494769126
  C        12.2766920872        2.6776151588       -0.2637851158
  H        13.9825981675        0.9633044803       16.0724648994
  H        12.2115310449        0.6240051888       15.9375091650
  C        12.7676635803        1.9443844321       17.6037719012
  H         7.3593773741        9.8139746565       16.0839911294
  C         6.9541195867        8.2521559285       17.4834734296
  H        15.0025250546        7.2856346586        6.0077603833
  H        15.4246184259        6.8296073102        4.4919018488
  C        16.2654798793        5.5153816321        5.9026473516
  H         8.1208917888        7.7132369701        2.8460657303
  H         8.6994080748        7.1649607608        1.2285513520
  C         6.8724448068        6.1491896780        1.8689899761
  N        12.2045709434       -0.3853319861        1.9244041396
  C        12.4098034944       -0.1430680733       -0.3620066267
  C        12.4008517896        2.1108752247       -1.5151485610
  H        12.4059115988        3.7333857153       -0.1134871036
  H        13.0034307208        2.9658338300       17.5904262366
  H        13.3476515795        1.3607198704       18.4348689697
  H        11.7354124748        1.8919974826       17.8902756117
  S         6.6752873746        6.6223047005       18.0508517339
  C         6.9737055875        9.2544442247       18.5689090732
  H        15.9320278740        5.0621907017        6.8337217144
  H        16.5001315031        4.6996922748        5.2885358503
  C        17.6248455987        6.2870195048        6.0330186821
  H         6.6331339110        5.5309194723        2.7090226339
  H         7.0042893594        5.5099282042        1.0250654881
  C         5.7534805414        7.2038234952        1.5036737978
  S        12.2728564502       -1.8896327615        1.3156766957
  N        12.4713134493       -1.5034758480       -0.2516764398
  C        12.5488786097        0.5743021702       -1.5761072676
  H        12.5720142978        2.7750208861       -2.3231949763
  C         6.6172575868        7.3029288270       19.7067992815
  N         6.6047960990        8.6390630589       19.7212917491
  O         7.0598708858       10.4379643915       18.3145222612
  H        18.0124959233        6.4379553756        5.0391555582
  H        17.4506476025        7.2711687989        6.3332184338
  C        18.6534223588        5.7340437087        7.0713583256
  H         6.3241995218        8.0362397975        1.1022432044
  H         5.1338402017        6.7531196113        0.7157137404
  C         4.7377385708        7.7386708579        2.6313450984
  C        12.7975180370       -0.2039224389       -2.7832322587
  S         5.9585473739        6.4103639650       21.0266342815
  C         6.6695523143        9.3953712168       21.0213578305
  H        17.9566715465        5.5072318043        7.9666761004
  H        18.9790365930        4.7083399355        6.8408433673
  C        19.8698021771        6.5533025447        7.4197482810
  H         5.2407699865        8.1651137203        3.4823804882
  H         4.0627203961        6.9534646348        3.0340280695
  C         3.8169099230        8.7775007444        1.9487479705
  H        12.6406800514       -1.2882661863       -2.6784207018
  C        13.2572786847        0.1739241319       -4.0281562628
  H         5.8352215330        9.1796596872       21.7400671462
  H         6.4589175553       10.3992150140       20.7009303037
  C         8.0451819579        9.3415286628       21.5760288944
  H        20.4355322630        6.0344081605        8.1647301174
  H        19.4510888539        7.4654465447        7.9018274270
  C        20.7969000577        6.9700983076        6.2943153547
  H         3.5330857845        8.3345991154        1.0340120328
  H         2.9341909728        8.7509951915        2.5355493567
  C         4.3607833641       10.1897145905        1.8286412799
  S        13.9240475466        1.6640955909       -4.4942308627
  C        13.5686017680       -0.9159191989       -4.9743313472
  H         8.6774092772        8.7960533057       20.8306552234
  H         8.1832606966        8.9081226821       22.5811488360
  H         8.4652675702       10.2822627161       21.5243170622
  H        21.7072664709        7.2771547015        6.7800692704
  H        21.1017401705        6.1109641179        5.7439071617
  H        20.3157267000        7.7165299553        5.7546181566
  H         4.1431449593       10.9271114131        2.6072084779
  H         5.3936787707       10.1051415724        1.5197750623
  H         3.7606303904       10.5155740457        0.9550792907
  C        14.4508943362        0.8293960303       -5.9251238995
  N        14.2581840314       -0.4913034387       -5.9968133428
  O        13.2928578671       -2.1178316124       -4.8015986624
  S        15.3902458418        1.7036096252       -7.2133314081
  C        14.5682176476       -1.3429191649       -7.1820055803
  H        14.7372435914       -2.4248180101       -6.8262371501
  H        15.3752832021       -0.9908578578       -7.7856660256
  C        13.4008602651       -1.3783351367       -8.1511482098
  H        13.3738954857       -0.4907636528       -8.7328774667
  H        12.4388341305       -1.6167096904       -7.7091716741
  H        13.6160820166       -2.2835223135       -8.7449031422
  H        -2.6305880240       15.2601110848       16.6401578337
  C        -2.7811640453       14.1830711339       16.6084189092
  H        -3.7375549259       14.1547931610       17.1222605793
  C        -1.7925925316       13.6138781045       17.5998477879
  C        -2.7465301824       13.4844759643       15.2748239432
  C        -2.0445456063       14.0709533229       19.0643531221
  H        -1.6685026278       12.5413717854       17.5725748648
  H        -0.8117317656       13.9322724190       17.2787556226
  H        -2.0723470895       12.6669366938       15.2748023560
  H        -3.7276204520       13.2144841080       14.8748147086
  H        -2.3350760631       14.2030673446       14.6049108600
  C        -1.5809062779       13.0207889318       20.1370919262
  H        -3.1259400712       14.3548120564       19.0863122803
  H        -1.4938844939       14.9935362962       19.0378101433
  C        -2.1232461036       13.2619315002       21.5748055397
  H        -2.0077788306       12.0390320480       19.7983658749
  H        -0.5270453753       12.8301173361       20.1943172200
  C        -1.0467567311       12.7165150729       22.6078477117
  H        -3.1127727194       12.7812582637       21.6372611502
  H        -2.2779893691       14.3738191059       21.4921021957
  C         0.2576301806       13.5948721933       22.6915193621
  H        -1.4485654815       12.5906317136       23.5810287473
  H        -0.8725352752       11.7187301184       22.3464955183
  C         1.4824267365       12.9282951983       23.3909824664
  H         0.4378744220       13.9691366653       21.6991935540
  H         0.0650698126       14.5955240250       23.2008917465
  C         1.9177160456       11.5579897637       22.7943132515
  C         0.9847401121       12.1867563192       24.5892084253
  C         2.7410504447       13.8640982439       23.6451653759
  C         1.5993348375       10.4414207574       23.5182487627
  C         2.3352746064       11.1914155987       21.5650642954
  C         1.1003288635       10.8515080915       24.7309454995
  C         0.4348146567       12.8095109604       25.6972801633
  H         2.7999954614       14.4157346640       22.7322963948
  H         2.5212732316       14.6339981348       24.4420387005
  C         4.0891904896       13.0402136231       23.9468471543
  S         1.9032894845        8.9274731717       22.7719139320
  C         2.4446599130        9.8428393057       21.4359031730
  H         2.7309688717       11.9873454406       20.9230717547
  C         0.6323970599       10.2060761447       25.8451510868
  H         0.2824881369       13.9294929482       25.6421737580
  C         0.1956090178       12.1048179559       26.8659412685
  H         4.3985683360       12.3835095583       23.1611717481
  H         3.9530957917       12.4360752017       24.8258997265
  C         5.2898237650       13.9282116916       24.2721629604
  C         3.0255758962        9.2268966959       20.2101849819
  C         0.2741359736       10.7553723348       27.0026784891
  H         0.8009487706        9.1572212101       25.8589612209
  C        -0.2723345973       12.5106754227       28.1301057420
  H         6.1493124902       13.2707196010       24.5240076254
  H         4.9772536486       14.5209970867       25.0795550058
  C         5.8339067114       14.8802132945       23.1774090318
  C         3.0457721321        7.8362384885       19.9461905613
  C         3.5982271360       10.0840679029       19.1434207025
  C        -0.0702594373       10.0353164913       28.2751537580
  C        -0.3665647144       11.3869011433       28.9545573429
  S        -0.5833399677       13.9908782949       28.9037150649
  H         6.5261274187       15.5431823694       23.6433664257
  H         5.0471844264       15.5178932605       22.7208021875
  C         6.3536970080       14.0703791353       22.0255899508
  N         2.7227487053        6.8770850544       20.9364203330
  C         3.3139692216        7.2819815947       18.7359866441
  C         3.7753562228        9.5406213717       17.8802667936
  H         3.6913339672       11.1645665755       19.2947380007
  C         1.0730343005        9.2752859846       28.9774869079
  C        -1.3425650444        9.1736316881       28.1839691938
  C        -0.8384451667       11.7535204667       30.2125449339
  C        -0.9287254684       13.1004041624       30.3519065908
  H         7.3811520339       14.4918750929       21.9625615636
  H         6.4395892221       13.0764216152       22.2285915635
  C         5.5866013580       14.1145806633       20.7012343655
  S         2.6388422482        5.4434997696       20.1914333585
  N         3.0554849406        5.9461801242       18.6628347516
  C         3.5827676102        8.0964948137       17.5957131767
  H         3.9327361689       10.1876820196       17.0548947369
  H         1.5361880445        8.6124794993       28.2274192427
  H         0.8167595856        8.6623614609       29.7723848763
  C         2.1540229229       10.2177614400       29.5038445449
  H        -1.0468437665        8.4775891978       27.3496348221
  H        -1.3608551230        8.5458401452       29.1041440119
  C        -2.7057088574        9.8292421116       27.9985868965
  H        -1.0113928646       11.0171839174       30.9444539601
  C        -1.2202794613       13.7338410470       31.6957399055
  H         5.2882802489       15.2021680746       20.3476947145
  H         4.5277551616       13.7191719632       20.7830540802
  C         6.3627833347       13.3863567954       19.6503898628
  C         3.8132025126        7.4907453600       16.3171320070
  H         2.5439371194       10.9243769192       28.7656106608
  H         1.9016315908       10.7411183089       30.3737842908
  C         3.4113910573        9.3744591580       29.8748585169
  H        -2.5893910827       10.5732301968       27.1680898507
  H        -2.9570502951       10.5117775234       28.7916993606
  C        -3.7602450088        8.7405106345       27.6882394014
  C        -1.2236260809       15.1279038423       31.9720186841
  C        -1.5366922095       12.8457363953       32.8852219166
  H         7.3536705998       13.7914396918       19.5664063592
  H         6.5668867956       12.3521202551       19.9626275580
  C         5.7723243268       13.4037233968       18.2578096170
  H         3.7674798149        6.4431961770       16.5182349988
  C         4.0905964093        7.9180054016       15.0606027968
  H         3.8801246346        8.8775718058       29.0231147140
  H         3.1314618641        8.5722639330       30.5320789502
  C         4.6090232764       10.1850266584       30.5110450696
  H        -3.4424200815        8.1235068799       26.8241424132
  H        -3.8039460556        8.0769460257       28.4919937991
  C        -5.1581402292        9.3257789538       27.6758174490
  N        -0.8603280080       16.0542815754       30.9670166581
  C        -1.3900661163       15.7299266077       33.2076086053
  C        -1.7563641075       13.4479618944       34.1262105140
  H        -1.6721984325       11.7530291215       32.7964277391
  H         5.2631604420       12.5416803891       17.9741169476
  H         5.0776401873       14.2417754136       18.2912264449
  H         6.4918045069       13.7250829717       17.5048644399
  S         4.2776037261        9.5196112300       14.4654341210
  C         4.2480669152        6.8303403672       14.0072667105
  H         4.6650094882       11.1527333090       29.9856935312
  H         4.3569345779       10.3815364809       31.5139002888
  C         6.0282297609        9.5642713983       30.3334275413
  H        -5.2903291993        9.9377101975       28.5870019165
  H        -5.9744790800        8.5907636145       27.6423590733
  C        -5.5398603243       10.1776160095       26.4674122665
  S        -0.8163346694       17.5670010264       31.5991306463
  N        -1.3225415377       17.1413337036       33.0984603699
  C        -1.7066721100       14.9448793691       34.3524819171
  H        -1.8295183594       12.9043402809       35.0011641391
  C         4.5068858146        8.7593062009       12.8344066140
  N         4.5412129475        7.4227255678       12.8020117618
  O         4.2109693641        5.6150389833       14.2136060269
  H         6.8152893722       10.1914870857       30.7495002127
  H         6.3174509465        9.5953255522       29.2962128756
  C         6.1730238153        8.1992332558       30.9465291047
  H        -4.8578224454       10.9932285723       26.3348398706
  H        -5.3309426160        9.5854612206       25.5900521730
  C        -6.9816125904       10.6460955677       26.4963539544
  C        -1.8779806497       15.6408931943       35.5900404496
  S         4.9400221780        9.6295373011       11.2477981983
  C         4.6814446227        6.5919664836       11.5998980391
  H         6.4588090458        8.3824388843       31.9750513391
  H         5.1106833788        7.6930996971       30.9641990269
  C         6.9340033418        7.1561609118       30.1296685869
  H        -7.1696682006       11.7679125616       26.2406464572
  H        -7.3157197641       10.5443426405       27.5235158874
  C        -7.9623445319        9.7886416594       25.6768870905
  H        -1.2530435254       16.4518857043       35.5845389761
  C        -2.5880900536       15.3272187547       36.7257296082
  H         5.4648653931        7.0546256912       10.9697634068
  H         5.0327261599        5.6104254757       11.6639271353
  C         3.3499589828        6.4535877632       10.8346130343
  H         7.9217403645        7.6338995137       29.8498144736
  H         6.3507520527        6.8405326472       29.2829485356
  C         7.3033143254        5.8929676701       30.8760475280
  H        -7.7235810252        9.7557404406       24.5792330590
  H        -7.7588412704        8.7518372099       25.9393666474
  C        -9.4902330845       10.0857662751       25.8732713283
  S        -3.3542585500       13.8720528369       37.1232956251
  C        -2.6481149180       16.3730914494       37.7850417108
  H         3.2052156545        7.2213916375       10.1570200657
  H         3.3654004537        5.5478801172       10.2789160727
  H         2.4644016340        6.3932121791       11.5093699497
  H         7.6511259897        6.1433589124       31.8956788000
  H         8.1899748676        5.4998134503       30.4368687223
  H         6.5262021854        5.1705237004       30.9800572391
  H       -10.0492075821        9.2015105976       25.8540837670
  H        -9.7605257892       10.5902882791       24.9752866966
  H        -9.6061824308       10.7359182229       26.7513576810
  C        -3.7346114822       14.6643253994       38.6936699454
  N        -3.3508042924       15.9653472998       38.8362105798
  O        -2.2038378457       17.5354938859       37.7020673209
  S        -4.3211390004       13.8547313995       40.1840171411
  C        -3.5524693917       16.7616744201       40.0368191875
  H        -3.4723659514       17.7805513879       39.7537210449
  H        -4.4759070365       16.6041136442       40.5653166668
  C        -2.3680983648       16.5460529544       40.9153165602
  H        -1.7753437578       17.3769609126       40.6202355079
  H        -2.4719627820       16.2994206604       41.9688261592
  H        -1.9083898264       15.6292827572       40.4982237123
