352
i=
  H         4.1933250488        1.3068463076       12.4523208533
  C         3.6224498981        2.2298066478       12.3868577019
  H         4.2886726266        3.0436119913       12.6465068416
  C         3.0249095082        2.5665547043       10.9670152712
  C         2.5018795085        2.2555859734       13.4283653021
  C         4.0067009263        2.8489312316        9.8123347237
  H         2.3855237635        3.4036249979       11.0643389275
  H         2.4734638137        1.6923407292       10.5825168387
  H         2.9408109992        2.0615508154       14.3655431344
  H         1.6848143222        1.5716119414       13.2161425829
  H         2.2269628272        3.2045471223       13.7318077516
  C         4.8576679926        1.5753095755        9.3316807086
  H         3.4982690366        3.2746835643        8.9827868633
  H         4.5328925707        3.6971727321       10.3157246510
  C         5.6596471416        1.9031178482        8.0344560127
  H         4.2546930847        0.7320067963        9.0016404221
  H         5.6220639467        1.2566107509       10.0804881730
  C         6.7885157053        2.9814173334        8.3027507922
  H         5.0375335413        2.2131720004        7.1845472504
  H         5.9812220785        0.9921013193        7.5927615237
  C         8.0238733648        2.1433201241        8.9101793182
  H         6.9587921314        3.5118896289        7.3284296683
  H         6.3567227072        3.6445182460        9.0764551139
  C         9.2149664867        3.0941258262        9.1966715559
  H         8.3403082665        1.3193706846        8.3100603335
  H         7.7607649402        1.6351729541        9.7838647578
  C         8.7573959544        4.3504661869        9.8620529818
  C         9.5630660617        3.8376983824        7.9239365636
  C        10.3365406787        2.4206936760        9.9929968691
  C         8.9029156264        5.4674118786        9.0972402957
  C         8.1777787284        4.6772715028       11.1007357908
  C         9.3954319479        5.1434929556        7.8479972904
  C         9.9392865917        3.2593291134        6.6909365079
  H         9.8294419034        2.1427169272       10.9280394895
  H        10.5998126904        1.5199604485        9.4560150642
  C        11.6127942938        3.1876095545       10.1001321207
  S         8.4061510967        7.0058780649        9.9276931520
  C         8.0334611392        6.0120579814       11.2705585057
  H         7.9343419580        3.9188600614       11.8193605225
  C         9.7268624214        5.8138916840        6.7234248274
  H         9.9758437103        2.2200571660        6.7256493432
  C        10.3029628447        3.9371751853        5.5851864154
  H        11.4543761046        4.2762820845       10.0958120626
  H        12.1420978090        3.0015275834        9.1346092703
  C        12.6159298138        2.6980612288       11.2576786136
  C         7.5196729388        6.5780707448       12.5124230225
  C        10.2264392707        5.2622603145        5.5614972133
  H         9.7328274249        6.8512881019        6.8361765937
  C        10.6368418522        3.5962307403        4.2813850271
  H        13.6358796754        3.1210089404       10.9798731609
  H        12.7997734198        1.6482635698       11.1139698313
  C        12.1521780233        3.0568016248       12.6878356691
  C         7.4395061766        8.0043054734       12.7706152312
  C         7.0219336117        5.6683504709       13.5912673787
  C        10.6006686144        6.0521861058        4.3041224861
  C        10.9125794537        4.6991452436        3.4897458160
  S        10.7746565864        2.0531127907        3.4889406372
  H        12.7866894976        3.9171046114       12.9849024904
  H        11.1746070905        3.4434881229       12.5865931972
  C        11.9919162215        1.8856709606       13.6661238883
  N         7.8542511846        9.0908469483       11.9552527009
  C         7.0175084004        8.4689637004       14.0321799122
  C         6.7215882622        6.1955918338       14.8507652571
  H         7.0940269007        4.6043330210       13.5517903989
  C        12.0051680505        6.8018446598        4.5459790555
  C         9.4820803655        6.8735562617        3.5717742278
  C        11.1662757661        4.2960161868        2.1922461212
  C        11.1089493563        2.9143799980        1.9982285088
  H        12.8908731636        1.3161976552       13.6178645475
  H        11.1083676376        1.3953746535       13.2414870699
  C        11.7972768836        2.3632017938       15.1249145422
  S         7.6230879547       10.4594009003       12.7950647490
  N         7.0224852666        9.8085356400       14.1709434478
  C         6.7248287903        7.6543012209       15.1624519040
  H         6.5866765199        5.5220614231       15.6617891155
  H        11.7859277825        7.2931227345        5.5027134483
  H        12.3425937688        7.5719861258        3.8802325801
  C        13.2045605950        5.7979685998        4.6876949796
  H         9.1746460535        7.7131308920        4.1810143418
  H        10.0048156089        7.3187225067        2.7309494228
  C         8.2271012026        6.0779456703        3.1862470394
  H        11.3631489462        5.0801418189        1.4518645625
  C        11.4974224162        2.1861155865        0.7725812795
  H        12.0561968081        3.4382118971       15.2279051134
  H        10.7840410159        2.4156793497       15.4766170748
  C        12.7720176238        1.6405190780       16.0736901289
  C         6.5991155381        8.3186407695       16.4001884281
  H        12.9408482879        5.0284268875        5.4597848948
  H        13.3794222080        5.1350566033        3.7922645596
  C        14.4973685004        6.5998225058        4.9594266446
  H         7.8152419397        5.7182662349        4.1466402057
  H         8.4942297752        5.2036023285        2.6189764546
  C         7.2883401918        6.9097020379        2.3025734334
  C        11.6016048887        0.7922157853        0.5969674700
  C        11.9645094538        2.9733423753       -0.4417362661
  H        13.8513902904        1.9015912821       15.8155869634
  H        12.6199060387        0.5554934103       16.0117407271
  C        12.5131178360        2.1014965162       17.5241664603
  H         7.0412908674        9.2992293861       16.4466188310
  C         6.3288326623        7.9236654966       17.7234870569
  H        14.3589753338        7.3404142513        5.7676049554
  H        14.8155293865        7.1244506364        4.0584576409
  C        15.4297280151        5.4727917017        5.5930146224
  H         7.0426494726        7.7683444457        2.8931569085
  H         7.6887097374        7.3034482706        1.3401755826
  C         6.0194690341        6.1474641192        1.9844459058
  N        11.3142840071       -0.1208736618        1.6124300034
  C        12.0075853614        0.2041661128       -0.5506259955
  C        12.3342565408        2.3069808996       -1.6280039491
  H        11.9549396963        4.0487241350       -0.4145984130
  H        12.4206388589        3.2136147030       17.6483569228
  H        13.1996487620        1.6548167747       18.1874272635
  H        11.6117123518        1.6292251704       17.7781366594
  S         6.0905406279        6.3437597381       18.3199120889
  C         6.4465055515        8.9429960178       18.8229455115
  H        15.0442187408        5.1996749518        6.6165362919
  H        15.4077008437        4.5824871853        5.0779246152
  C        16.8727497528        6.0031811881        5.8105470596
  H         5.6386712663        5.6554113587        2.8981629137
  H         6.2450470094        5.2963075630        1.3054738887
  C         4.9835665569        7.1214540762        1.4506633388
  S        11.4926864528       -1.6659897717        1.1382556013
  N        11.8238941843       -1.2704196797       -0.4168403044
  C        12.3225983341        0.8784555230       -1.7384848902
  H        12.5787394212        2.9245839882       -2.4634358080
  C         6.0909102125        7.0660102107       19.9426255716
  N         6.3422498282        8.3965268858       20.0207899171
  O         6.3333973721       10.1303292685       18.6559327916
  H        17.4098349634        5.5894247285        4.9751742003
  H        17.0008423238        7.0537628841        5.6120202300
  C        17.3558834967        5.6876982585        7.2129766363
  H         5.3301232013        7.9316756764        0.9005038001
  H         4.2947195707        6.6355572909        0.7338339389
  C         4.1557888498        7.5145897587        2.6289396465
  C        12.6460765479        0.0667722811       -2.8867067210
  S         5.6144997813        6.2272979767       21.4252075335
  C         6.3272365834        9.1245345930       21.3030755375
  H        16.6261180405        5.9329121044        7.9460195130
  H        17.5019838024        4.5899625570        7.2818870374
  C        18.6787107275        6.3951866440        7.4584508539
  H         4.7534582387        7.7555186613        3.4582043361
  H         3.6265296530        6.6421561984        2.8716485287
  C         3.1354629124        8.5632658022        2.4198920392
  H        12.4012278549       -0.9764670236       -2.7673663694
  C        13.1331607422        0.3344057242       -4.1436245050
  H         6.1964242734        8.5064440190       22.2320516896
  H         5.5545923341        9.8909315133       21.4342881243
  C         7.6317497016        9.8965546967       21.4721402933
  H        18.9826994926        5.9504203976        8.3237829278
  H        18.5483244853        7.4865697186        7.6945241174
  C        19.8280470643        6.0108750678        6.4831906443
  H         2.5014182592        8.4707475427        1.5513859135
  H         2.3821062458        8.4705625733        3.2285307278
  C         3.7957706871        9.9792157626        2.2912305976
  S        13.6463775477        1.8260058478       -4.8201204153
  C        13.2128732271       -0.8251761118       -5.0640485791
  H         8.1727080132       10.0190151411       20.5422231754
  H         8.2908898475        9.4260277923       22.2667214452
  H         7.4241808190       10.9258788730       21.8060880221
  H        20.4829110111        5.4061220787        7.0375161196
  H        19.5658528622        5.4615900889        5.5860348278
  H        20.3979542487        6.8570270797        6.0171190745
  H         4.6005700167       10.1426841537        3.0404868773
  H         4.2827722125       10.0039755003        1.3301476649
  H         2.9681374672       10.6904132307        2.3643658229
  C        13.9278610567        0.9337815491       -6.2906109509
  N        13.8688229588       -0.4457794092       -6.1946656497
  O        12.9351206650       -1.9874590897       -4.6791332752
  S        14.5269711826        1.6688382937       -7.6963339154
  C        13.9720727972       -1.3657316870       -7.3197763056
  H        14.2895086045       -2.4436760577       -7.0584957863
  H        14.7613953667       -0.9918807719       -7.9657006862
  C        12.6631071403       -1.3315010021       -8.1456499869
  H        11.9213472471       -0.4959434962       -7.7660469079
  H        12.1140396648       -2.2694281324       -7.9908599046
  H        12.8481746307       -1.2883395566       -9.2148046629
  H        -3.3754414819       15.2199800252       16.2438855443
  C        -3.3799858694       14.1257842645       16.1524673828
  H        -4.4076095972       13.7735743210       16.2856216409
  C        -2.3497528752       13.4284635487       17.0746510280
  C        -3.0909799158       13.9051554191       14.6483623556
  C        -2.6441247609       13.7839667418       18.5777306061
  H        -2.4682984759       12.3622996062       16.9725455623
  H        -1.2957011197       13.6670835535       17.0176113263
  H        -3.9259080523       14.1857787693       13.9295736855
  H        -2.2668202321       14.4647244525       14.2961322141
  H        -2.7854437190       12.9017537672       14.4352723717
  C        -1.5481199879       13.5172964230       19.6090716558
  H        -3.5773251855       13.3021308922       18.7890447392
  H        -2.9215434645       14.8280337999       18.7862392971
  C        -2.1595258719       13.4173796200       21.0520612385
  H        -1.1178622724       12.5723912329       19.4273162411
  H        -0.7593152778       14.2098951061       19.4329440563
  C        -1.0521683552       12.9062034033       21.9966569340
  H        -3.0181401276       12.7220163279       21.0575604871
  H        -2.4593947038       14.3595673236       21.3429926334
  C         0.0982578046       13.9932678884       22.2634244780
  H        -1.4315440485       12.6068656644       23.0107139925
  H        -0.6883931396       11.9313126593       21.5278994581
  C         1.2533086176       13.3259445948       23.0278890715
  H         0.5433615913       14.2264921308       21.2914847060
  H        -0.3241296223       14.8895730326       22.7649106724
  C         1.5618905320       11.9861638689       22.3423642678
  C         0.8550519447       12.6586579224       24.3237738168
  C         2.4289186182       14.2585383806       23.1808940178
  C         1.3300114558       10.9023896024       23.1464436720
  C         2.0741605033       11.5351196783       21.0963345523
  C         0.8239073599       11.3038087841       24.3718182720
  C         0.4819757648       13.3052722078       25.5333965012
  H         2.5698000773       14.7291739268       22.2593090756
  H         2.1559616317       15.0608011465       23.8829565537
  C         3.7358022434       13.6095629789       23.6519217209
  S         1.7629393941        9.3993700319       22.4968519181
  C         2.1349494928       10.1846994523       21.0367297268
  H         2.3215842647       12.2073944186       20.3058979903
  C         0.4505640454       10.6445319495       25.5391922403
  H         0.4387802305       14.3862680717       25.4248666094
  C         0.0576844961       12.7421194212       26.6389113982
  H         4.0414219159       12.7931288432       22.9815098015
  H         3.5907678983       13.0955957007       24.5255679826
  C         4.9669686711       14.5731996187       23.7932623470
  C         2.5587634558        9.4079466513       19.7886871949
  C         0.0298329722       11.3809669353       26.7362632275
  H         0.4630713995        9.5480679206       25.7263395099
  C        -0.3380825029       13.2507313207       27.8753343181
  H         5.6957792714       14.0428072179       24.3558520538
  H         4.5877266462       15.4771719146       24.2618983029
  C         5.4708903110       15.1307354983       22.4636278707
  C         2.3059236576        8.0216179495       19.5748065886
  C         3.0336980269       10.1998791832       18.6577877409
  C        -0.4563908554       10.7504939868       27.9819418838
  C        -0.6965449936       12.1689540463       28.6554003670
  S        -0.5072063179       14.7834144868       28.6724995535
  H         6.1371123920       15.9605337822       22.6379909773
  H         4.6684793420       15.4880943389       21.7304962821
  C         6.2743612453       14.0357395025       21.7442526218
  N         1.9654810547        7.0584555758       20.5597504867
  C         2.4070513330        7.4340341998       18.3329357417
  C         3.1627404881        9.6068669730       17.4269705289
  H         3.1889257562       11.2328010939       18.7849675614
  C         0.5587303675        9.9138557849       28.7465083855
  C        -1.6607333727        9.8686676357       27.8161691657
  C        -0.9443348127       12.5835330209       29.9935607945
  C        -0.8669150781       13.8730843717       30.1192359986
  H         6.9930604914       14.6053649705       21.1637403205
  H         6.9084385468       13.4380593978       22.3740403292
  C         5.5524059589       13.1578906437       20.7138297228
  S         2.0388656904        5.5684100212       19.9512469678
  N         2.2124797184        6.0674612691       18.3519028085
  C         2.8729482121        8.1451626783       17.2112593788
  H         3.4555892772       10.2368774433       16.6143187196
  H         0.7099049907        9.0727316122       28.0522702988
  H         0.1594284432        9.4928985148       29.6492034800
  C         1.9860293074       10.6133433458       28.8441272808
  H        -1.4879612865        9.0424374066       27.1820962566
  H        -1.9501659448        9.3836766948       28.7493002701
  C        -2.8807569146       10.6917736792       27.3768786083
  H        -1.2038197943       11.7740559578       30.7345617033
  C        -1.2147894476       14.5867163232       31.4282215899
  H         4.4753239134       13.2305683507       20.7894594558
  H         5.7311291028       12.1247089263       20.8550097353
  C         5.8334318516       13.3863030809       19.2866158104
  C         3.0844281409        7.4974425653       15.9831119249
  H         2.3505253165       10.9279319046       27.9277889570
  H         2.0783774834       11.5152448270       29.3724925240
  C         3.0596582808        9.7479283626       29.5451430783
  H        -2.6089732823       11.2034464742       26.4637116312
  H        -3.0212878059       11.5437005912       28.0667647324
  C        -4.1216160178        9.7884820679       27.3797296703
  C        -1.2111087524       15.9923110431       31.6299585444
  C        -1.5916292289       13.7934574326       32.6067238065
  H         5.1308236624       12.8754106458       18.6243122257
  H         5.7496705245       14.3906515205       18.9410993496
  C         7.2536871330       12.9137778927       18.9841346661
  H         2.8927080307        6.4103241208       16.0493394575
  C         3.4505810394        7.8387271849       14.6804514592
  H         3.2354201224        8.9571872118       28.8417324272
  H         2.6127277048        9.3132877371       30.4808455600
  C         4.4238843139       10.3754478696       29.8479019832
  H        -4.0215999463        9.0873066889       26.5746634148
  H        -4.0453817626        9.1851070879       28.2421446532
  C        -5.5227780620       10.4168484511       27.1802569443
  N        -1.1048386516       16.8456121702       30.5776891692
  C        -1.5529327714       16.5890273351       32.7790513351
  C        -1.8806542920       14.4111793159       33.8091282577
  H        -1.5050349824       12.7605405739       32.6794172781
  H         7.3916521913       12.3417921123       18.1316352717
  H         7.9190918032       13.7872879033       18.7652329039
  H         7.7465816850       12.3468025596       19.8270979494
  S         3.7255603227        9.4179385989       14.2526823322
  C         3.5106363209        6.7658605143       13.6642468312
  H         4.5975534603       11.1176771955       29.0597434067
  H         4.2368674489       10.8486495000       30.7697888169
  C         5.6197806479        9.3672506220       29.9803127074
  H        -5.4532777769       11.2958990221       27.7327269292
  H        -6.2234583846        9.7693825719       27.6831974902
  C        -5.8166245490       10.7204977015       25.6873427770
  S        -1.2234975693       18.3330454235       31.1516597526
  N        -1.4095381377       17.9486727442       32.7447533790
  C        -2.0011527818       15.8757876383       33.8992487731
  H        -2.0262725234       13.8313826980       34.7008882938
  C         4.0407629416        8.7080425219       12.6637557106
  N         3.9363641664        7.3676374589       12.5063984106
  O         3.5347762182        5.5307518463       13.8151110619
  H         6.4140277306       10.0331115397       30.3796402716
  H         5.9274505447        8.9700575238       28.9630578128
  C         5.3790058863        8.1719341438       30.9495957985
  H        -5.2199816763       11.5735447196       25.3061613872
  H        -5.5042155922        9.8856743749       25.0516436536
  C        -7.2823637131       10.9740091607       25.4002894291
  C        -2.4339911436       16.6314985746       35.0179247376
  S         4.2496871915        9.6953645901       11.2041263356
  C         4.1247263508        6.6270567688       11.2835271462
  H         5.4941249954        8.3387336809       32.0475382191
  H         4.3583153444        7.7406576249       30.8233849435
  C         6.1810870079        6.9751161679       30.4400411233
  H        -7.3139961785       11.4343737935       24.4326366579
  H        -7.6247523474       11.7679656961       26.1095552324
  C        -8.0936163506        9.6929233678       25.4124439952
  H        -2.3041080272       17.6832411724       34.9142447176
  C        -2.9681297894       16.2813733502       36.2542170444
  H         4.9523455520        7.0104176033       10.6902243300
  H         4.3538948504        5.5894502492       11.5993011840
  C         2.8128929173        6.5676615416       10.4542904091
  H         7.1644589546        7.2977697258       30.2406671708
  H         5.7823504264        6.5697871746       29.5135110003
  C         6.1845200968        5.8659980952       31.5473469162
  H        -7.7700471751        9.0650831128       24.6266013524
  H        -7.9905171985        9.0920316074       26.3278333050
  C        -9.5747908291       10.0755356844       25.2551028159
  S        -3.3590162416       14.7441166096       36.8639740001
  C        -3.1563516790       17.4082040390       37.2217870313
  H         2.6240228142        5.6167060780        9.9398505088
  H         1.9549774406        6.8402258173       11.1323457933
  H         2.7963511875        7.3036022919        9.6660020067
  H         6.3561687561        6.1704505494       32.5325612663
  H         7.0365005710        5.2138259375       31.2632643422
  H         5.1876711414        5.2767093328       31.4572036068
  H        -9.6629330531       10.9337264208       24.5473992023
  H       -10.0551138702       10.3198139745       26.2013515201
  H       -10.2515060488        9.2784744532       24.9029524010
  C        -3.8131378552       15.5338202658       38.3862040849
  N        -3.6086315736       16.8647057346       38.4084890999
  O        -2.8052266270       18.5390833685       37.0226592908
  S        -4.1938417688       14.6924141574       39.9011788822
  C        -3.7651113531       17.8094284340       39.5246061057
  H        -4.0696399228       18.7728245704       39.2056719970
  H        -4.4694775352       17.3316643265       40.1518147056
  C        -2.3819497272       17.7820457803       40.2787252555
  H        -1.6995201364       17.2290215970       39.5513990251
  H        -2.0475949498       18.7617027213       40.4797175928
  H        -2.4636191179       17.2882811090       41.3116782648
