352
i=
  H         2.9459607959        0.9622943493       12.6074608182
  C         3.6688387151        1.5437223792       12.0758681410
  H         4.4781775844        0.8637381791       11.8111968809
  C         3.0012415485        1.9356241364       10.7605050898
  C         4.1166886645        2.6633807091       13.0283530845
  C         3.9753796325        2.5109850805        9.7865455859
  H         2.1069766468        2.5596345371       10.9178393345
  H         2.6626592855        0.9745121097       10.3452086044
  H         4.4861602604        2.2658407510       13.9640112408
  H         3.2825576275        3.2359220466       13.2963848846
  H         4.8992982096        3.1857163302       12.4916406159
  C         4.6976284805        1.3971101399        9.0307891929
  H         3.3701873891        3.1152286687        9.1086182608
  H         4.5559455235        3.2510322288       10.2961343274
  C         5.5432097001        1.8386594368        7.7812708277
  H         3.9732299387        0.7103242034        8.6472195560
  H         5.4051028960        0.8660217228        9.6440151731
  C         6.8178974591        2.6285158196        8.1197985627
  H         4.8501367815        2.4591974339        7.1367879861
  H         5.8678719584        0.9779663466        7.1558698459
  C         7.9099473054        1.8260412471        8.7394640464
  H         7.0838640284        3.1858694849        7.2408848374
  H         6.5252370572        3.3507898908        8.8378190485
  C         9.1344339291        2.6538633353        9.1194110696
  H         8.2631226829        1.0792492372        7.9556085930
  H         7.6522288587        1.2482166276        9.5642680500
  C         8.7521973901        3.9864002312        9.8435417662
  C         9.5930144362        3.4040107118        7.9681582219
  C        10.2890752980        1.8905065264        9.7509631192
  C         9.0843109427        5.1376312577        9.1028226710
  C         8.3020906704        4.3631316724       11.1246142927
  C         9.5616593702        4.7712995926        7.8385949031
  C        10.0427647355        2.7778277662        6.8017977139
  H         9.9586867993        1.3428161498       10.6748531901
  H        10.6265665343        1.1635183024        9.0015033632
  C        11.5116245593        2.7505215077       10.0417423364
  S         8.7478435994        6.6279714194        9.8154356039
  C         8.3154259310        5.7550931115       11.2574607508
  H         7.9709262006        3.6365895019       11.8843038443
  C        10.0289469612        5.3144257418        6.6366947494
  H        10.1070921100        1.7051875061        6.8620182365
  C        10.4395062999        3.3340551792        5.6205472522
  H        11.1393910753        3.6697509827       10.4562076504
  H        12.0530512385        3.0098506917        9.1361025937
  C        12.6121999467        2.2268183864       10.9990029980
  C         7.9100306010        6.5422338851       12.4699134124
  C        10.5496364462        4.6762908074        5.5444898930
  H        10.0568919999        6.3736701551        6.6066314285
  C        10.9138515528        2.9275428210        4.4092545196
  H        13.4368670380        3.0270166800       10.8385033033
  H        12.9778193729        1.2578099737       10.7173093305
  C        11.9804925647        2.1892453992       12.3231960990
  C         7.9431588782        7.9734455830       12.7202354537
  C         7.3707440958        5.7664553458       13.6570570649
  C        11.0109399259        5.3325236690        4.3092870924
  C        11.2823319645        4.0129126955        3.6080392940
  S        11.0399964261        1.4104709143        3.6188231510
  H        10.9709990864        2.6384217646       12.4460697301
  H        11.6653244326        1.1600663098       12.5898518225
  C        12.8810393381        2.5041571153       13.5137506710
  N         8.4473433635        8.8930076164       11.8097963376
  C         7.6833553280        8.5512717493       13.8932461915
  C         7.1034773764        6.3655036440       14.9108077181
  H         7.3304918922        4.6644240482       13.6567761945
  C        12.2860697227        6.2073867714        4.5484682985
  C         9.9163208847        6.0197238540        3.5979157602
  C        11.7071452281        3.5345729093        2.3580071129
  C        11.6210099251        2.2057635418        2.1673575637
  H        13.4468861617        3.4103773312       13.3809733457
  H        13.6508197731        1.7907815046       13.4385174499
  C        12.1690216926        2.4617193003       14.8886853393
  S         8.4753271508       10.3418934408       12.4990502540
  N         7.7162449194        9.9683466615       13.8017211824
  C         7.2097586820        7.8550588365       15.0230322002
  H         6.6026776877        5.7546720232       15.6750066372
  H        11.9709410740        7.1098205519        5.1037070023
  H        12.5948829942        6.5528051442        3.5466858803
  C        13.4739618705        5.5129973540        5.1235860038
  H         9.4066426125        6.7156698260        4.1919376536
  H        10.3790107617        6.6042922954        2.8419186111
  C         8.8479150788        5.1404054529        2.9600747859
  H        11.9257002623        4.3410505180        1.6096088251
  C        11.9623073211        1.5110735155        0.8934111399
  H        12.0109945350        3.4639281793       15.0793837505
  H        11.2066495207        2.0221863663       14.7926787193
  C        13.1308738793        1.9241427490       15.9769609376
  C         6.8860498027        8.5319199417       16.2432258214
  H        13.1769134360        4.7975027381        5.8131641026
  H        13.9562233600        4.9191384196        4.3842841597
  C        14.5295556918        6.5090414962        5.6811117429
  H         8.3934085133        4.4511883428        3.6762466542
  H         9.1959662039        4.4273721153        2.1862590252
  C         7.6727870670        5.9271212383        2.2817698016
  C        12.0924785230        0.0812386334        0.7397461197
  C        12.1047605736        2.2502154446       -0.4096626543
  H        14.0900943153        2.3044215835       15.8250723503
  H        13.2951181986        0.8366880733       15.9425408586
  C        12.5581253914        2.2049054996       17.3483550745
  H         6.7652024269        9.6450588904       16.1280739821
  C         6.6029981852        8.1663313482       17.5080520488
  H        14.0489346879        7.2001018840        6.2779749911
  H        15.0255521006        6.9911369923        4.7815942652
  C        15.5574703715        5.6462281001        6.3538115340
  H         7.2856876575        6.5450764819        3.0338130941
  H         8.1532757034        6.5819171913        1.5533713061
  C         6.6235852451        5.0340435245        1.6649205294
  N        12.0864803788       -0.8009139404        1.8033705049
  C        12.2610348170       -0.6285218306       -0.4806768542
  C        12.3039923401        1.5665160461       -1.5934019630
  H        12.2064000783        3.3081427667       -0.3904700606
  H        11.9791400091        3.1087647113       17.5105642854
  H        13.3518839872        2.4039935863       18.1056544903
  H        11.7989015499        1.4701679150       17.6287364690
  S         6.5679696386        6.6035358428       18.1926044091
  C         6.5604967056        9.3407336170       18.4479205823
  H        15.1193435129        5.0119970949        7.1362768304
  H        15.8610316012        4.9988337051        5.5386063892
  C        16.9330943735        6.3026927027        6.6759453092
  H         5.9449808670        4.6101100368        2.4480438655
  H         7.0458894524        4.2268689150        1.0394483017
  C         5.6862419350        5.9918917207        0.8221844860
  S        11.9688266746       -2.3596991381        1.2478705938
  N        12.4003736247       -1.9527528841       -0.2821101183
  C        12.4597566381        0.0973747340       -1.7113107991
  H        12.5092741623        2.1905573263       -2.4382195231
  C         6.2963827153        7.4375915431       19.7210206620
  N         6.2904944968        8.7748138426       19.6698933662
  O         6.5747809126       10.5488902484       18.1884773142
  H        17.4083831576        6.7589869795        5.7668161553
  H        16.6357975272        7.0817187835        7.3732344394
  C        17.9797867330        5.4156167204        7.3272875142
  H         6.2378981636        6.5704240211        0.1126457805
  H         5.0333759248        5.3370569117        0.2731868976
  C         4.8705028720        7.0088289233        1.5977340120
  C        12.7351736571       -0.6751002538       -2.8710277368
  S         6.1051939973        6.4732317359       21.1665826374
  C         6.4461512606        9.5819396331       20.8562151207
  H        17.4451154715        5.2360303451        8.2893870588
  H        17.8842516611        4.4638600875        6.7275167250
  C        19.4257201716        5.9438064087        7.2791687430
  H         5.1819395476        6.9226133678        2.6143018167
  H         3.7788753159        6.9342273944        1.5420368359
  C         5.1971489558        8.4721357057        1.0827768911
  H        12.7666745947       -1.7121241375       -2.6335005986
  C        13.1672484710       -0.3693175099       -4.1155988326
  H         5.7578170023        9.1869003960       21.6241786658
  H         6.3295163133       10.6072701859       20.5084691365
  C         7.9025748062        9.4696475678       21.3896051109
  H        19.9680884281        5.3725465315        8.1194812996
  H        19.4309793705        6.9866747136        7.6226413501
  C        20.0902890493        5.7224591451        5.8858525427
  H         6.2086887415        8.5537031076        0.6376878022
  H         4.6329258095        8.7202865402        0.1967360377
  C         4.9226609241        9.4880899440        2.1826665139
  S        13.6493536364        1.1425903236       -4.7240551451
  C        13.3971174136       -1.4697518920       -5.1251173896
  H         8.1146322196        8.4986659770       21.8996165243
  H         8.1318169373       10.3933698602       21.9921125261
  H         8.5186463500        9.5889486987       20.4722060227
  H        19.3638865063        5.6574699056        5.1091621929
  H        20.6603684937        6.5486577300        5.6626197677
  H        20.8011973489        4.8666742504        5.8166274146
  H         3.9966821342        9.2876273501        2.6309199677
  H         5.4409381935        9.3428439855        3.1667012675
  H         4.9497736466       10.5217071845        1.6849693729
  C        14.0775843339        0.3218034015       -6.2297494322
  N        13.9024443286       -1.0345052139       -6.2253653431
  O        13.4000709663       -2.6445037128       -4.7475005594
  S        14.6148790193        1.0631647874       -7.6925624142
  C        14.0874597575       -1.9066867434       -7.3665579728
  H        14.6032805479       -2.8474158827       -6.9874958855
  H        14.8885814377       -1.5368044469       -7.9814836620
  C        12.7317430587       -2.1612607349       -8.1472456350
  H        12.5043409897       -1.5574274649       -9.0510571329
  H        11.8161425349       -1.9966705554       -7.5324955166
  H        12.7400354094       -3.1801088970       -8.4877180300
  H        -2.3939004088       15.3630659481       16.2578413728
  C        -2.5283721907       14.3102085225       16.5313717855
  H        -3.6244051242       14.1050588327       16.7800239493
  C        -1.6439659319       14.0818410127       17.7161048666
  C        -2.2154630920       13.4464199992       15.3639833059
  C        -2.3003990512       13.2281701413       18.8725923747
  H        -0.7772223878       13.5529396486       17.2768264073
  H        -1.3376049436       15.1180697741       17.9676939007
  H        -1.4253095762       12.7126233665       15.5099487684
  H        -3.0428424754       12.9515358726       14.9390276742
  H        -1.7665782684       14.0426402980       14.5613989566
  C        -1.2419686324       12.7209344655       19.8404443054
  H        -2.8318992039       12.3303806675       18.4811242026
  H        -2.9733429514       13.9582812990       19.3989410192
  C        -1.6753984337       12.8384400445       21.2810370431
  H        -0.9141570119       11.6650822325       19.7039335741
  H        -0.2946223090       13.3667756130       19.6408056028
  C        -0.6891324717       12.2302014037       22.3038281403
  H        -2.5656480104       12.1498191351       21.4054071711
  H        -2.0060013797       13.8091547079       21.5700897359
  C         0.4657314099       13.2202006094       22.5613873667
  H        -1.2039991749       12.2637125143       23.2955649704
  H        -0.6170887680       11.1831026765       21.9982670895
  C         1.6222419193       12.6486548430       23.2925787355
  H         0.6920991594       13.7345312801       21.5618679638
  H        -0.0042453964       13.9691942135       23.1716419573
  C         1.9418530432       11.3029628091       22.6012527498
  C         1.1622803968       11.9607709220       24.5434268329
  C         2.8767054122       13.5629724670       23.5002077166
  C         1.6055765534       10.2362174019       23.3640285807
  C         2.3206393906       10.8808800412       21.3048270867
  C         1.0967602734       10.5779057308       24.6008922702
  C         0.7847089284       12.6406344109       25.7528589679
  H         3.2220241474       13.6963031469       22.4578692949
  H         2.7327698858       14.5887273131       23.9695690322
  C         3.9967492595       12.9728508107       24.2851797062
  S         1.9427029403        8.6853066103       22.5562856071
  C         2.3753498209        9.5201426866       21.1035953262
  H         2.5969149564       11.6632957901       20.5704106751
  C         0.7101131277       10.0336141905       25.8061526793
  H         0.8476414157       13.7094593629       25.6790879295
  C         0.4043272732       11.9698564747       26.9389041396
  H         4.3627475326       12.0237700314       23.9157220011
  H         3.4830473979       12.8576370697       25.2210105535
  C         5.1666545354       13.9724483037       24.5424897825
  C         2.8056910048        8.9562511691       19.8181604757
  C         0.3425603959       10.6340490420       26.9584631050
  H         0.7824133036        8.9400953170       25.8125184373
  C        -0.1120463574       12.2809013788       28.1854418256
  H         5.8567900614       13.4845492502       25.2182143199
  H         4.6591807347       14.7052015584       25.1255637192
  C         5.9625875176       14.5113154555       23.2785731666
  C         2.8591213316        7.6314257916       19.4791139908
  C         3.2108055640        9.8600076868       18.7376296427
  C        -0.0534094598        9.8748618166       28.1584553327
  C        -0.3326317990       11.1622753283       28.9585160352
  S        -0.4983669483       13.7441524939       29.0209574332
  H         6.6792144981       15.0785710473       23.7342829621
  H         5.4791756725       15.1608900317       22.6343200238
  C         6.6039307797       13.3795198136       22.4029830762
  N         2.5027061981        6.6406218112       20.4184263442
  C         3.2351983574        7.1425896534       18.2641844594
  C         3.5272037243        9.4261580518       17.4503100382
  H         3.1953413090       10.9246495467       18.8292258081
  C         0.9498892015        8.9418514683       28.8536090879
  C        -1.3153428146        9.0902489647       27.8435063844
  C        -0.6180394726       11.4941976245       30.3099486460
  C        -0.7873577527       12.8266735160       30.4693845799
  H         7.6850920085       13.3767711892       22.6358065553
  H         6.2526498458       12.4875918983       22.9193257287
  C         6.1786187615       13.2989994099       20.8700281268
  S         2.8748191138        5.2520983981       19.7598839116
  N         3.1313728899        5.7162354760       18.2194529569
  C         3.6131343639        7.9695763765       17.1423662119
  H         3.6667515670       10.2046168369       16.6969127484
  H         1.0694161426        8.1152952319       28.1709330333
  H         0.5237631969        8.5350014379       29.7910016418
  C         2.3088118307        9.6572839479       29.1751691152
  H        -1.2658244546        8.3018440646       27.0182313340
  H        -1.4978930391        8.4758469238       28.7141721854
  C        -2.5706783762        9.8451557892       27.4699454668
  H        -0.5897280416       10.7320121894       31.0904288559
  C        -1.0762869552       13.5883126874       31.7353445817
  H         5.4941529460       14.0551916932       20.5071820945
  H         5.6685563405       12.3606941351       20.6720359726
  C         7.3881500532       13.6211490614       20.0104374348
  C         3.7501963095        7.2947141898       15.9203291581
  H         2.9659129855        9.4800362054       28.3720215114
  H         2.1191753691       10.7152770733       29.1371278241
  C         3.0127037023        9.3104827853       30.5099095293
  H        -2.5659357457       10.4225101228       26.6095000086
  H        -2.8862987104       10.5097833584       28.2866855773
  C        -3.7766086713        8.8690331660       27.3404985900
  C        -1.2916946744       14.9947237627       31.8771173827
  C        -1.3505085375       12.7525801846       32.9554889192
  H         7.8572103424       14.4639661107       20.4859063971
  H         8.1340431948       12.8034945404       20.1144867510
  C         7.0477058568       13.9244107413       18.5148017020
  H         3.8902815064        6.2124831587       16.0169249107
  C         3.9527000055        7.8104095883       14.6439433302
  H         2.9707329541        8.1899226036       30.5446410603
  H         2.3611461305        9.5047798099       31.3507239461
  C         4.4198115903        9.8644183914       30.4996369974
  H        -3.6320222568        8.3278062459       26.4193088780
  H        -3.9958429594        8.1832005573       28.1552855509
  C        -5.1053384785        9.6566842449       27.2775399774
  N        -1.0932861348       15.9766215783       30.8667128904
  C        -1.7277933180       15.5535796694       33.0728988502
  C        -1.8793606691       13.3077865746       34.1226180105
  H        -1.2903118493       11.6484359953       32.8034544078
  H         6.9421350718       15.0083642488       18.4185797920
  H         7.8482777561       13.4840610993       17.8505447827
  H         6.1571175738       13.3834202141       18.2006295606
  S         4.0403639006        9.4840210959       14.1748398157
  C         4.0424467042        6.7916244525       13.5684936255
  H         4.3940670934       10.8189016791       29.9580617385
  H         4.6722324051       10.1027410650       31.5347859707
  C         5.5236742941        8.8905749003       29.9575534482
  H        -5.0204831515       10.5581432229       27.8143161608
  H        -5.9405981387        9.1566428544       27.7665050388
  C        -5.4828209642        9.9027578457       25.8176070970
  S        -1.1002680859       17.3764215326       31.6119575942
  N        -1.6051092095       16.9192019099       33.0525251319
  C        -1.9448552199       14.7879089078       34.2552304066
  H        -2.0821288930       12.6293774797       34.9636959814
  C         4.3306091928        8.8174475448       12.5704266133
  N         4.2645419979        7.4688300773       12.4205409291
  O         3.8231032949        5.5733475976       13.7240031442
  H         6.4232247282        9.3572198851       29.6476817981
  H         5.1293242905        8.3939530692       29.1189891502
  C         5.8066149728        7.8050674506       30.9271713444
  H        -4.7971124712       10.6303088397       25.3478190389
  H        -5.3840874561        9.0807270816       25.1414437711
  C        -6.8405035985       10.5112382811       25.5806988640
  C        -2.2592054314       15.4832174282       35.4866233856
  S         4.6012060820        9.7439159523       11.1860602815
  C         4.3222697759        6.7763505231       11.1043186819
  H         6.4134282195        8.1970123148       31.7114173164
  H         4.9330713291        7.3871301915       31.3692840964
  C         6.6321296886        6.7581590200       30.2154544231
  H        -7.1068020148       10.4318124337       24.5310728679
  H        -6.7389514149       11.5390022161       25.9286582377
  C        -8.0129309572        9.7483345761       26.3754962355
  H        -1.8172345286       16.4536199686       35.5524507183
  C        -2.7842890303       15.0299874507       36.6354813762
  H         5.1483812303        7.1773216029       10.5655143304
  H         4.5833563887        5.7330668259       11.2377050674
  C         3.0069828626        6.6203277133       10.4091447224
  H         7.4496497578        7.3640192269       29.8001645827
  H         6.0693117965        6.3261875942       29.4082984074
  C         7.1430466260        5.6419846256       31.1109212723
  H        -7.7681705028        8.7165513349       26.2136838882
  H        -7.9371580454        9.8020670603       27.4108030114
  C        -9.4095682084        9.9785809642       25.8704351869
  S        -3.5257746687       13.4564935253       37.0172463204
  C        -2.8755338210       16.0386971237       37.7867476991
  H         2.9921644048        5.6368934322       10.0076217478
  H         2.1629099829        6.6176821852       11.1197832405
  H         2.8721737325        7.2989892998        9.5923968919
  H         6.5453032484        4.7760393611       30.8974864491
  H         6.9239782355        5.9567664272       32.1416009342
  H         8.1663401001        5.4376689679       30.9269900776
  H        -9.6196650052       11.0857619813       25.9788666276
  H       -10.1620283362        9.3318042109       26.2772882386
  H        -9.4949865973        9.6504875599       24.8191211801
  C        -4.0031540174       14.1787343604       38.5399236516
  N        -3.6860302866       15.4943665343       38.7227037394
  O        -2.3884222337       17.1410580394       37.7950500326
  S        -4.7448406483       13.2519672748       39.8006366619
  C        -3.8681892750       16.2256980265       39.9329579436
  H        -4.0646845243       17.3063122127       39.6346013560
  H        -4.7817821875       15.9347670976       40.4033811352
  C        -2.6180214799       16.0800784293       40.9096674503
  H        -1.6669324500       16.0859407122       40.3284387450
  H        -2.5264204342       16.9080425807       41.6358917911
  H        -2.5385430039       15.0935889926       41.4982691400
