352
i=
  H         2.8524271535        3.2211516637       13.1105937459
  C         3.3349470088        2.3081928058       12.6287860091
  H         3.0317775199        1.4621066315       13.2825718343
  C         2.7071687393        2.1516534335       11.2601882167
  C         4.8344271570        2.5191174943       12.8106942985
  C         3.5393164601        2.4971860473       10.0388678134
  H         1.7512329819        2.6664401098       11.2776321545
  H         2.4682944250        1.1142680096       11.0298375520
  H         4.8773451168        2.5980151368       13.9278584509
  H         5.0293983676        3.5426573300       12.4014778798
  H         5.4633305394        1.7614692339       12.4831666023
  C         4.5410884947        1.3572454313        9.5743943292
  H         2.8750133156        2.8708867901        9.2626892973
  H         4.1829033080        3.3531682953       10.3242653637
  C         5.3941797559        1.8094870926        8.4090264083
  H         3.9783578972        0.5085229319        9.1623513550
  H         5.1286214414        0.9887691350       10.3433663806
  C         6.6081684332        2.6517320704        8.8719498997
  H         4.7969884822        2.4210130347        7.8166216422
  H         5.7209012825        0.9971471583        7.7363049717
  C         7.8306596261        1.8833434993        9.1718682899
  H         6.8180133083        3.3356440610        8.0039460259
  H         6.1373248863        3.2423535778        9.6403509032
  C         9.1401939097        2.7175118414        9.3417839710
  H         8.1017599331        1.2151094404        8.3487433704
  H         7.5113700566        1.4275635753       10.1010822636
  C         8.8056700415        4.0377966204       10.0914326737
  C         9.5938027990        3.4229356923        8.1360393592
  C        10.1518764015        1.8985410209       10.0619446326
  C         9.0733228907        5.1782634827        9.3493389993
  C         8.2196084524        4.4357084714       11.3276793969
  C         9.5924957497        4.7922428810        8.1443255826
  C        10.1568985545        2.8225381343        7.0097803165
  H         9.8167199847        1.5269426807       10.9819383753
  H        10.1902366734        0.9999346543        9.4778496450
  C        11.4256042788        2.6960633150       10.3693509114
  S         8.6501163460        6.6540380990       10.1319164754
  C         8.0679521892        5.7621349718       11.4832650387
  H         8.0786535690        3.7072139901       12.0778557111
  C        10.0584090811        5.4257293948        7.0153960301
  H        10.1777763794        1.6949839759        7.0126707238
  C        10.5105890138        3.4625043323        5.8942750625
  H        11.1561497681        3.6462606389       10.8235105252
  H        12.0667470723        2.8101631316        9.5419415523
  C        12.3422470832        2.0804045053       11.4329105773
  C         7.8230675891        6.3896971944       12.7598972379
  C        10.4836328718        4.7905251261        5.8067247575
  H         9.9750318823        6.4972918123        7.0616894864
  C        10.9405917238        3.1035724505        4.6231369466
  H        13.2315653992        2.7675971833       11.5060323471
  H        12.4934302104        1.0524557857       11.4251103612
  C        11.6931721355        2.2306119517       12.7884883400
  C         7.7800529479        7.8043237966       12.9940135442
  C         7.3687377197        5.5666853460       13.9507937622
  C        10.8890789499        5.5506023753        4.5266992156
  C        11.2577028134        4.1871027797        3.8390692580
  S        11.2264870996        1.6727258652        3.7200891627
  H        11.0854334595        3.0780393503       12.8457669274
  H        11.0361760632        1.3591240190       12.8576892090
  C        12.6834216342        2.2848873415       13.9017767688
  N         7.9738898317        8.8087628065       12.0561742393
  C         7.4720899969        8.3581764215       14.2335859921
  C         7.0382542620        6.1576014539       15.1676694839
  H         7.2124632290        4.4871049222       13.9445469285
  C        12.1790185884        6.3474575316        4.7890811171
  C         9.8128524424        6.3315979313        3.8459287842
  C        11.6158224869        3.8719339258        2.5332553123
  C        11.6785703483        2.5117062201        2.2645221102
  H        13.5107716746        2.9758935976       13.7350964811
  H        13.1209256489        1.2816851623       13.9738685640
  C        12.0684695137        2.4283070233       15.3092023225
  S         7.9069892921       10.2975158445       12.7531665856
  N         7.4970124498        9.7825686267       14.1979981810
  C         7.0581171562        7.6342724645       15.3695728938
  H         6.8979411156        5.5447487035       16.0620685588
  H        11.8497176692        7.1032268190        5.5552422043
  H        12.5398568398        6.8371842421        3.8647917339
  C        13.2985591673        5.5122837782        5.3814957929
  H         9.6680045450        7.2207535343        4.4769932345
  H        10.2130177489        6.6508230086        2.8794182064
  C         8.5700202362        5.4534848231        3.6600381718
  H        11.9095821571        4.6716521565        1.8894976160
  C        12.0041618658        1.8134174377        1.0137366242
  H        12.0303618452        3.4940134138       15.4580240748
  H        11.0781924862        1.9921715383       15.3777444910
  C        13.1239155083        1.9907984577       16.3185153046
  C         6.8908013770        8.3988197813       16.5912096499
  H        12.9768241498        5.1150824577        6.2958686732
  H        13.5168452424        4.6505859992        4.7109541873
  C        14.4823088511        6.4048285747        5.5817070581
  H         8.1438770901        5.3535866736        4.6317879891
  H         8.7547730165        4.4653012285        3.2596021588
  C         7.5264571658        6.1330117811        2.8521653103
  C        12.1127844583        0.3960576130        0.8879055650
  C        12.2109178297        2.5620456460       -0.2158245698
  H        14.0478440806        2.5045033250       16.1894850195
  H        13.3645140250        0.9784347687       16.2826162830
  C        12.6861355032        2.2127848854       17.7650956037
  H         7.1430452452        9.4789594764       16.5202457770
  C         6.5025361466        8.0468378405       17.8699597523
  H        14.3329225512        7.3634117082        6.1550653581
  H        14.7397639481        6.8100608291        4.5771557949
  C        15.3907683316        5.3629827210        6.1968612920
  H         7.3182909940        7.0480662333        3.3431628525
  H         8.0121711009        6.4837938851        1.9565510969
  C         6.2711253267        5.4088365508        2.5412541288
  N        11.8160941024       -0.4850467987        1.9280191573
  C        12.3354455059       -0.3076743980       -0.3142175073
  C        12.5771990264        1.9037481432       -1.4106828175
  H        12.1403980812        3.6137587582       -0.1842099967
  H        11.6702647866        2.0859364302       17.8067751591
  H        12.9838614029        3.2306357956       18.0477276556
  H        13.1652094846        1.6065747020       18.4291291985
  S         6.1194685669        6.4843380817       18.3650433403
  C         6.5315078208        9.1325562522       18.9221874945
  H        14.8491678689        4.8359161294        6.9685199091
  H        15.7609710943        4.6858334781        5.3987911647
  C        16.5619243991        6.0669052831        6.9072794226
  H         5.6237186607        5.5457359365        3.4200209443
  H         6.3647296964        4.3166447090        2.4997164814
  C         5.5020952892        6.0051904851        1.3557764278
  S        11.8529147265       -1.9975829638        1.3282592520
  N        12.2236651540       -1.6765915527       -0.2207246769
  C        12.6804146581        0.3705398082       -1.4935088717
  H        12.6686524259        2.4721432063       -2.3155733215
  C         6.0417328468        7.1942152733       19.9671247211
  N         6.1868775932        8.5491400742       20.0662482358
  O         6.8924354000       10.2902444246       18.7386024734
  H        17.0633128803        6.7882901704        6.2275053860
  H        16.1035192974        6.7371928914        7.6311597855
  C        17.5507917270        5.0943423172        7.6357913147
  H         6.2329491341        6.2244337417        0.5904067090
  H         4.7348273591        5.2820857411        1.0390471422
  C         4.8041302090        7.2873051685        1.6483818889
  C        12.9851694440       -0.2607725626       -2.6878308880
  S         5.2616449808        6.3133740234       21.3739171157
  C         6.3361675976        9.3298615433       21.2966194238
  H        17.3018765033        4.8803052183        8.7122635176
  H        17.5754486614        4.1095503601        7.1537286815
  C        18.9534585849        5.7999050029        7.5426106175
  H         5.4666533980        7.8580013563        2.2748058894
  H         3.8734581080        7.1629639316        2.2392793467
  C         4.5203070823        8.1188415044        0.4345005150
  H        12.6663248586       -1.3050883358       -2.5545244554
  C        13.6279333204        0.1110392464       -3.8582631540
  H         5.7804039619        8.8625901808       22.1350045130
  H         5.7454758432       10.2058410431       21.1729845159
  C         7.8237963928        9.4794637796       21.7364720078
  H        19.5143399294        5.5662804931        8.4800737611
  H        18.7347739204        6.8510007659        7.6821081775
  C        19.6696256202        5.4729870256        6.2496138477
  H         5.3565745702        8.0051942420       -0.2465850790
  H         3.5620866337        7.6858059911       -0.0184941445
  C         4.3841157537        9.5876586240        0.8637226125
  S        14.3517775441        1.5753808105       -4.3011646612
  C        13.6075462631       -0.9414840758       -4.9022991823
  H         8.2546758499        8.5224770758       22.0605491776
  H         7.9050846311       10.1534944547       22.5597466321
  H         8.4586274691        9.7455251590       20.9203928277
  H        19.2843665656        5.9158036412        5.3647696690
  H        20.7790602801        5.7655198098        6.4036608323
  H        19.6491024069        4.3632474694        6.0292117845
  H         5.2961760150       10.2291212387        0.8988924716
  H         3.7105095720       10.0911095304        0.2341494092
  H         3.8753465782        9.7474064489        1.8026142287
  C        14.5096617447        0.8854666437       -5.8875122090
  N        14.2064781753       -0.4499605735       -5.9619805019
  O        13.0940842744       -2.0714591456       -4.8750226617
  S        14.6678261910        1.6882531120       -7.3977807788
  C        14.3042028976       -1.1588096984       -7.2524972838
  H        14.4833453590       -2.2389165181       -6.9962071730
  H        15.2068090590       -0.7871687384       -7.8307275621
  C        12.9943498731       -1.1133201499       -8.0071208803
  H        13.2117011116       -0.7903419249       -8.9806861843
  H        12.3076297012       -0.4355041195       -7.4922829863
  H        12.5005662867       -2.0711991667       -7.9695591373
  H        -1.3223577422       14.9801013324       16.8372882102
  C        -2.3986921889       14.7811894239       16.6179452097
  H        -2.7285196075       15.8277177281       16.4796201850
  C        -3.0504687711       14.1681731112       17.9163984884
  C        -2.5450993474       13.9397860929       15.3301115630
  C        -2.2425344996       12.9815699868       18.4811909309
  H        -3.1074783999       15.0141315117       18.6498765741
  H        -4.0480507064       13.8446912193       17.7644871377
  H        -1.9735181111       13.0127072535       15.3431217311
  H        -3.5376069700       13.6917910444       15.0925019520
  H        -2.0962885857       14.6074542045       14.5968675969
  C        -1.3485132748       13.2629652816       19.6677169287
  H        -1.7446780308       12.4298364885       17.6553594506
  H        -2.8235640626       12.1533350083       18.9648017973
  C        -2.0821328160       13.3159960629       21.0466689731
  H        -0.6852300891       12.3727790772       19.7720327837
  H        -0.7109433009       14.1036525819       19.3975783051
  C        -1.2702289179       12.8790753357       22.1724276474
  H        -3.0737901497       12.8207776692       21.0302854917
  H        -2.3404630708       14.4174375086       21.1410560662
  C        -0.0890362578       13.7917097534       22.5772004231
  H        -1.8697605499       12.7066648220       23.0713930823
  H        -0.8727615905       11.8670438815       21.9704154071
  C         1.1171178992       13.1465876021       23.2938143065
  H         0.1689861975       14.3891634301       21.6847276443
  H        -0.4640554729       14.4883303300       23.3171608343
  C         1.4963644632       11.8540977415       22.6245876312
  C         0.6959556766       12.5038853376       24.5508461397
  C         2.1709520583       14.2392997249       23.3592928388
  C         1.2642570264       10.7382147729       23.3825077998
  C         2.0784287345       11.5103255164       21.3419208321
  C         0.7802843724       11.1750841789       24.6230346058
  C         0.3172667814       13.0887397037       25.7444986881
  H         2.3625544976       14.5168394714       22.3658969905
  H         1.9492158639       15.1419815715       23.8533813226
  C         3.4711000425       13.6639282403       23.9442396228
  S         1.5877175519        9.2681484824       22.5588407161
  C         2.1780053226       10.1294678491       21.1884384846
  H         2.2820931624       12.2399784226       20.6440085455
  C         0.3878498267       10.5058435264       25.7530766915
  H         0.2612010992       14.1779182973       25.6368185429
  C        -0.0898477354       12.4205000031       26.8438058489
  H         4.0427805601       13.0359902498       23.2059686421
  H         3.3008397655       13.0432230047       24.8259862651
  C         4.5554848111       14.7047210337       24.3871764095
  C         2.7385933581        9.4611196951       19.9851175531
  C        -0.0030782839       11.0706856468       26.9700473148
  H         0.4466342454        9.4350260134       25.7275851174
  C        -0.5277496455       12.7958364444       28.0887112251
  H         5.3673825845       14.3116859583       25.0878435915
  H         4.0892733446       15.4827444247       25.0678534715
  C         5.1594531371       15.2808767087       23.1854087295
  C         2.6202360459        8.0541347512       19.7175492467
  C         3.2784981232       10.2829062097       18.9119326420
  C        -0.3668355434       10.3953095317       28.2569206571
  C        -0.7451209993       11.7509341420       28.9164287753
  S        -0.9354914798       14.3172355967       28.7972606044
  H         5.8550318320       15.9678334707       23.6789289473
  H         4.5611328464       15.9646882779       22.6433584276
  C         6.0947222659       14.3075821785       22.4157081517
  N         2.2803354134        7.1748876188       20.6795257934
  C         3.0014599276        7.4254182290       18.5798670612
  C         3.6109538514        9.6906477919       17.6905242538
  H         3.4738777287       11.3239124155       18.9657513260
  C         0.9571815546        9.6641568768       28.8126571858
  C        -1.5878526022        9.3980981680       28.1070199313
  C        -1.1006865294       12.1953356397       30.1777339009
  C        -1.2303791091       13.5197518155       30.2711433262
  H         7.0488354465       14.8268739499       22.3973151605
  H         6.2700378711       13.4078246104       22.9546872511
  C         5.7800133720       14.0067991750       20.9552908251
  S         2.2152274831        5.6608846068       20.1047636209
  N         2.8700121589        6.0607680353       18.6210118016
  C         3.3019254868        8.2220540758       17.4605054828
  H         3.9565823970       10.3113987356       16.8533797787
  H         1.4826174304        9.1732179205       28.0285381569
  H         0.6556862885        8.9811807028       29.5208826101
  C         2.0152058845       10.7353453904       29.3495303315
  H        -1.4166573050        8.7343614466       27.2110642951
  H        -1.7863585038        9.0227821466       29.0712533236
  C        -2.8096692207       10.1942195503       27.7842041614
  H        -1.3417644891       11.4032351044       30.8149265781
  C        -1.6865683940       14.2032816401       31.5539745402
  H         5.3756811112       14.8764473221       20.5707844108
  H         5.0490528463       13.1216497171       20.9945112521
  C         6.9891983232       13.5816520747       20.2132904139
  C         3.5715654074        7.5206088839       16.2414953394
  H         2.4736255963       11.1302763988       28.4022036970
  H         1.5770018956       11.5194535466       29.9495440197
  C         3.1343508303       10.0376275481       30.1198294526
  H        -2.6255025525       10.8317295500       26.8575371160
  H        -3.0601436256       10.8513692740       28.5892988621
  C        -4.0391062650        9.2224394548       27.4752959009
  C        -1.7645295258       15.6281704624       31.7021853699
  C        -1.8354996394       13.3822951278       32.8111915564
  H         7.8792051801       14.0960606173       20.6419492067
  H         7.1127672023       12.4955613764       20.5091451341
  C         6.9896065361       13.8827398932       18.6887463175
  H         3.5355524572        6.4818721989       16.3904989224
  C         3.7276672321        7.8599288667       14.9227367133
  H         3.5838192581        9.2635890909       29.5104661233
  H         2.7697495869        9.5012883190       30.9677095888
  C         4.2430939953       10.9260594444       30.6352210892
  H        -3.7069108319        8.6829886468       26.6194244550
  H        -4.2921950662        8.5593653458       28.2810568137
  C        -5.3287661039       10.0288214277       27.1108376446
  N        -1.5091752403       16.6085508567       30.6948032037
  C        -2.0445088046       16.2054626759       32.9675585450
  C        -1.9594331835       13.9857328182       34.0319045303
  H        -1.7793167797       12.2780417662       32.7987726414
  H         7.2082472148       12.8836236401       18.2577766685
  H         5.9936941209       14.0786133018       18.3744907457
  H         7.5912934189       14.7290239126       18.4788315276
  S         3.8955559739        9.4541728001       14.3646157097
  C         3.6664656393        6.7164714312       13.9639440279
  H         4.2487620692       11.8706055207       30.0894784280
  H         4.1052295861       11.0823221509       31.6854720420
  C         5.6139247009       10.2310194225       30.4761300527
  H        -5.1701025274       11.0933917927       27.1615812465
  H        -6.0931237439        9.9199503501       27.8463622123
  C        -5.9343343366        9.6693390421       25.7015782541
  S        -1.6351768207       18.1145788518       31.3221291755
  N        -2.1242469728       17.6250662663       32.8666501702
  C        -2.0988883212       15.4548712535       34.1209158745
  H        -2.0943144279       13.3924920590       34.8918729325
  C         3.9680912291        8.5949550926       12.7996459304
  N         3.8002392852        7.2594501120       12.7575254859
  O         3.5305258863        5.5277815386       14.2116933092
  H         6.3472930662       10.8065594193       30.8694911019
  H         5.8369690609       10.2038464857       29.3870728566
  C         5.8077724215        8.8857655334       31.1216546865
  H        -5.2007512874        9.4751640189       24.9474920334
  H        -6.3403033378        8.6263775557       25.9633582679
  C        -7.0236097489       10.6765917939       25.2739212345
  C        -2.3690180174       16.2207603609       35.2992897839
  S         4.2795057149        9.4360574651       11.2112208475
  C         3.5653278332        6.4881540010       11.5481314988
  H         6.2996601101        9.0968805934       32.0890208212
  H         4.8524181259        8.3851635036       31.3085742803
  C         6.7031706263        8.0359997986       30.2960622476
  H        -6.5264698859       11.2086892288       24.4066693729
  H        -7.2036493899       11.5497813876       25.9436094967
  C        -8.2986902568       10.0831855622       24.8516789317
  H        -2.0424970723       17.2081919940       35.2053782512
  C        -2.9329173430       15.8136034855       36.5117645951
  H         4.1270874592        6.6878744109       10.6717601699
  H         4.0138415666        5.4477857665       11.8298807534
  C         2.1352616130        6.2649444399       11.2022786348
  H         7.4236806279        7.6297104980       30.9639574348
  H         7.3504971941        8.5872645205       29.6796353340
  C         5.9317276991        7.0469184385       29.4288727854
  H        -8.8227687288       10.6669889175       24.0779024501
  H        -8.0748157938        9.1202447986       24.4553762774
  C        -9.2575953243       10.0308354167       25.9624636870
  S        -3.5280061022       14.2215229846       36.9096740984
  C        -3.0533488977       16.8546543037       37.5363946692
  H         1.6541540081        6.2654522342       12.1562287954
  H         1.7937433201        7.1827795060       10.5937429246
  H         1.9801181979        5.3411313828       10.6047689847
  H         4.9831872152        7.3220566860       28.9824036895
  H         5.6487386880        6.2037163179       30.0365159609
  H         6.6078897928        6.6802603430       28.6474481692
  H        -9.1823485665       10.9045285163       26.5792467978
  H        -9.2416322808        9.0446585772       26.5444691341
  H       -10.2425792388       10.0918908017       25.5392977223
  C        -4.0343573209       15.0377606692       38.4028627505
  N        -3.7316358103       16.3419929195       38.5573383795
  O        -2.5036239455       17.9370156008       37.4800413609
  S        -4.6640313653       14.2797393201       39.8546280424
  C        -3.8491515447       17.0765280707       39.8676835284
  H        -3.6680806601       18.1323945082       39.7183257222
  H        -4.7736234413       17.1265822816       40.3933323913
  C        -2.7125431328       16.7523149028       40.8124812427
  H        -2.7607591797       15.7368660839       41.1964308537
  H        -1.8272796085       16.7639358848       40.2821749783
  H        -2.4154158836       17.5182792406       41.6168895408
