352
i=
  H         4.4946367017        1.3234104053       12.9389414880
  C         4.0195706453        2.2984828588       13.0143503010
  H         4.8582500877        2.9735210935       12.9909120436
  C         3.1342331445        2.4259524802       11.7563796941
  C         3.2271424644        2.3593848414       14.2750193086
  C         4.0081474641        2.7208175551       10.5113234939
  H         2.4977120031        3.2806514184       11.8368045888
  H         2.6127049161        1.4411593553       11.7986498475
  H         3.6869242463        1.6464675855       14.9909427426
  H         2.1524236323        2.0994117492       14.3504234233
  H         3.3232761306        3.3069212044       14.7945791897
  C         4.4049218267        1.4327547394        9.8357473040
  H         3.5350551235        3.2631229901        9.7673858067
  H         4.8244552245        3.2670481402       10.8513984666
  C         5.2940918398        1.5641404484        8.5403253287
  H         3.4960452853        0.7989328328        9.7194170641
  H         5.0575826959        0.9338882830       10.5164593826
  C         6.5528109102        2.4722566794        8.7377629672
  H         4.8031654162        2.0457324288        7.6694913253
  H         5.7462270941        0.6019683268        8.2406927499
  C         7.7635555924        1.7238932364        9.3426907298
  H         6.8762964184        2.8210856567        7.7683361048
  H         6.3843440991        3.4010759601        9.3163488578
  C         8.9850399313        2.6772695855        9.5194486280
  H         8.1350207852        0.8909612930        8.8215710162
  H         7.4550244225        1.4521900853       10.3700229122
  C         8.6518670414        4.0436310687       10.1252909628
  C         9.4001867056        3.2784018348        8.2001390599
  C        10.1796115750        1.9312913770       10.1593741108
  C         9.0227821085        5.0830972727        9.3675467323
  C         8.1828895354        4.4050764770       11.4106621131
  C         9.4495396462        4.6443750552        8.1034844421
  C         9.7676276700        2.5913781117        7.0217779101
  H         9.7768138796        1.3410149456       11.0558396635
  H        10.7224139195        1.2859957475        9.3995399347
  C        11.2634376940        2.8650084162       10.8119795931
  S         8.8518631387        6.6210546508       10.1938211950
  C         8.1283976598        5.8123412871       11.5133072941
  H         7.9800638316        3.5992171141       12.0859266077
  C         9.8578081784        5.1997382859        6.9360104486
  H         9.6816580817        1.4881233763        6.9915273264
  C        10.1171422673        3.2373370231        5.8910372208
  H        10.7501821767        3.4829487479       11.4758170483
  H        11.8401132349        3.4931480716       10.0759336790
  C        12.3549115921        2.1264500848       11.6176887272
  C         7.7054740863        6.5430288807       12.7631645207
  C        10.1458737262        4.5776195702        5.7915721339
  H         9.9258496451        6.2848302022        6.8948322879
  C        10.5760400242        2.8986960497        4.6396209743
  H        13.2051472941        2.8421390366       11.6770805440
  H        12.7529017189        1.3181817135       11.0492789386
  C        11.9576601472        1.6076124194       12.9693959945
  C         7.7858251795        7.9103998995       13.0034925473
  C         7.1563473896        5.7483650006       13.8443170756
  C        10.6354805582        5.2851619536        4.5005833579
  C        10.8872193291        3.9559008130        3.8097137140
  S        10.9022498783        1.2903791972        4.0664634253
  H        10.8875582901        1.4815687126       13.0167698504
  H        12.4193078019        0.6290924850       13.2244263640
  C        12.4228655936        2.6474155842       14.0289172537
  N         8.3712861418        8.7899008413       12.0861276042
  C         7.4073256724        8.4769170588       14.2515098174
  C         6.7466649810        6.3005110352       15.0541895043
  H         7.1115651896        4.6766118870       13.7326484619
  C        11.9254532129        6.1825112843        4.7159866786
  C         9.6576517470        6.2028558834        3.7840166327
  C        11.2829913685        3.4546891112        2.5977616369
  C        11.2633292302        2.0579017885        2.5770007840
  H        12.1741387104        3.6712927992       13.7204914235
  H        13.4789559496        2.6270232320       14.1148621795
  C        11.8647264205        2.3410833769       15.4616345421
  S         8.3886890245       10.2358608525       12.7791168772
  N         7.6297891879        9.8034128785       14.2038880219
  C         6.8404039987        7.7340869580       15.3157584616
  H         6.4911477281        5.6400089635       15.8820001024
  H        11.5210211883        7.0232878555        5.3472357463
  H        12.1632528019        6.7045004036        3.7804483469
  C        13.0593278205        5.4666757451        5.3075562725
  H         9.1145991828        6.7289303384        4.5444469204
  H        10.2181107494        6.8694166283        3.1061871777
  C         8.5419458312        5.4888971729        3.0150942521
  H        11.6295232169        4.1098712558        1.7796904551
  C        11.5402300320        1.3201732846        1.2991080031
  H        11.7284603134        3.2770787035       15.9469972303
  H        10.8720812162        1.9135602235       15.3716608456
  C        12.8110161293        1.4888939953       16.3148174317
  C         6.7698098975        8.3317328050       16.6001785878
  H        12.8205167100        5.1868110330        6.2972549758
  H        13.2255376005        4.5167339402        4.8232639075
  C        14.4101068199        6.2848172366        5.1830161210
  H         8.0550340391        4.7623601587        3.6170569646
  H         8.9495091151        4.9313950099        2.2019893393
  C         7.4812295440        6.4666016168        2.5477824105
  C        11.6115287949       -0.0640853662        1.1365053923
  C        11.8120640511        2.0642416399        0.0304031078
  H        13.6459805843        2.0811955656       16.3799861205
  H        13.0282030015        0.5167429639       15.8139950639
  C        12.2451280971        1.3087251266       17.6720172129
  H         7.2905911254        9.2820615104       16.6230905357
  C         6.4038457498        7.9026944712       17.8449126365
  H        14.2850931188        7.2431812650        5.6363094076
  H        14.7311688728        6.5854353649        4.2288989324
  C        15.4978491761        5.3704967659        5.7907070675
  H         7.2567232752        7.1746009684        3.3548485643
  H         7.8829331716        7.0926207251        1.8135043264
  C         6.1788744555        5.8464764354        1.9796111788
  N        11.3702222973       -0.9814489166        2.1196343513
  C        12.0003709238       -0.7211023082       -0.0419708845
  C        12.1172163362        1.4476168270       -1.1880670564
  H        11.8411217830        3.2067964084        0.0107737625
  H        11.4298398166        0.5677719524       17.7867994441
  H        11.8336711380        2.3164209487       17.9636689808
  H        13.0804432766        1.0662431086       18.3647731173
  S         5.7806512083        6.3527354666       18.4240653380
  C         6.4548634028        8.9552569599       18.8897800493
  H        15.2105842887        4.9560991207        6.7310788011
  H        15.4451824122        4.4854949663        5.1103635216
  C        16.9251696134        5.9421387901        5.8977739813
  H         5.8423046412        4.8816274670        2.4546132610
  H         6.3712808405        5.6862670019        0.9502774896
  C         4.9928351471        6.8193373350        2.0123643430
  S        11.8399276246       -2.4456797063        1.6984805960
  N        12.1266695115       -2.0954740662        0.1484710292
  C        12.2431303149       -0.0458165583       -1.2487566841
  H        12.1863122021        2.0516316292       -2.1053080716
  C         5.7398340466        7.0283002761       20.0664881136
  N         6.1238114202        8.3646150372       20.0944251082
  O         6.7693799657       10.1094707819       18.7120352835
  H        17.4113217723        5.6099050246        4.9519824688
  H        16.7459530152        6.9882928834        5.7566650884
  C        17.6847652617        5.4471775172        7.2034845632
  H         4.1050020154        6.2003916518        1.8075139482
  H         4.8194341079        7.0378269153        3.0632236755
  C         5.0673423200        8.0261976701        1.0790088329
  C        12.6517544026       -0.7727152840       -2.3854847500
  S         5.2977508153        6.2457117850       21.5573850991
  C         6.2202384105        9.1151109185       21.3455262015
  H        17.2165922457        6.0509902091        8.0249920762
  H        17.5610702586        4.3906062303        7.4505070252
  C        19.1911211237        5.7492892123        7.2068014018
  H         5.1599610013        7.6666402530        0.0484629042
  H         5.9181941431        8.5911257212        1.3155609946
  C         3.8579699367        8.9489995169        1.0304296277
  H        12.2456514361       -1.7814270856       -2.3340201570
  C        13.2944602266       -0.3751676910       -3.5514920644
  H         5.5962254266        8.6289070575       22.0273233996
  H         5.6746726000        9.9737195188       21.1233532768
  C         7.6505917336        9.2445342844       21.8592250380
  H        19.8596630750        5.2354623049        7.8229772014
  H        19.2426685096        6.8383748543        7.3586319012
  C        19.8585757947        5.2759604211        5.8961620538
  H         3.9610935652        9.6419212476        0.2077579063
  H         2.9657361279        8.3371488017        0.8571192148
  C         3.6172431097        9.7396648497        2.3047752598
  S        13.7129233957        1.2130123093       -4.0202641231
  C        13.5773479720       -1.4386835186       -4.5802676233
  H         7.8702155994        8.4279057463       22.4985872511
  H         7.7551502767       10.1403005223       22.5120849983
  H         8.5130896548        9.5584323726       21.1395662103
  H        19.4574923238        4.2822426560        5.5770700154
  H        19.5561557933        6.0289455393        5.1687563345
  H        20.9327973191        5.3438524568        5.9904514233
  H         2.6300335160        9.5848610553        2.7070572615
  H         4.2667606372        9.4188027866        3.0303203800
  H         3.6481306713       10.7836135757        2.1721535267
  C        14.2224630094        0.4494349014       -5.5514498125
  N        14.0444706449       -0.8941630805       -5.7074759897
  O        13.4620612346       -2.6112183622       -4.3262713585
  S        14.6008082707        1.2776795418       -7.0685169172
  C        14.2742569134       -1.6929056880       -6.9469534557
  H        14.3547522268       -2.7672833335       -6.7321176923
  H        15.1540625285       -1.4952981217       -7.5223399012
  C        12.9949407912       -1.4455423247       -7.7782748620
  H        12.5685512853       -2.4348560193       -8.0455821778
  H        13.0498445495       -0.9769306292       -8.7093378718
  H        12.2603458989       -1.0021017536       -7.0676729307
  H        -2.4285218026       14.9215064275       15.8585745137
  C        -2.7718883170       13.9480445206       16.2927759139
  H        -3.8499422202       14.2786669899       16.6631310036
  C        -1.9812812073       13.4745470757       17.4709637050
  C        -2.8948238146       12.9424772239       15.1395565858
  C        -2.6367062552       13.7256339534       18.7985788086
  H        -1.9041960765       12.3762818496       17.4253033044
  H        -0.9176193878       13.7815664353       17.4667470727
  H        -3.0423374732       13.5507926444       14.2807574787
  H        -1.9287341095       12.4262393494       14.9715217967
  H        -3.7943431402       12.3013447741       15.3120603491
  C        -1.4974802749       13.7448096163       19.8125201181
  H        -3.3314622461       12.8968977859       19.1310140140
  H        -3.1302285541       14.6945297893       18.8862781095
  C        -1.9714694091       13.7041564713       21.3171894336
  H        -0.7488661752       12.9615290346       19.6540160076
  H        -0.9308771438       14.6497683792       19.5576465834
  C        -0.9213612365       13.0860412768       22.2526308392
  H        -2.8429875967       13.0237244067       21.4450430298
  H        -2.1479069480       14.6859469235       21.6493315088
  C         0.3455084635       13.8771827787       22.4544708220
  H        -1.4156747709       13.0106830695       23.1858829108
  H        -0.6850645886       12.1231420494       21.9310580974
  C         1.4356106922       13.2564639589       23.3192176595
  H         0.8132771870       14.0391236637       21.4666869840
  H         0.2067344440       14.9652775698       22.8430048252
  C         1.8012781070       11.9292338406       22.6942718707
  C         0.9685100938       12.6357132320       24.5586828294
  C         2.6895737867       14.1183204521       23.4235870812
  C         1.3817884196       10.8962155681       23.4564826905
  C         2.4437497022       11.5277763538       21.5154590336
  C         0.9199488820       11.3045291746       24.6803593081
  C         0.5193640160       13.2426392948       25.6843828585
  H         2.9363768419       14.3545024392       22.3573788317
  H         2.4232512744       15.0093753583       23.9762318838
  C         3.9553605232       13.4682641684       24.0787521761
  S         1.7013347325        9.3326141287       22.6670352218
  C         2.3206345827       10.2141977458       21.2536538703
  H         2.7851346786       12.2395427410       20.7859390686
  C         0.5859543844       10.6666684161       25.8083015434
  H         0.5642440132       14.3564212597       25.7391746429
  C         0.0854531346       12.5816130759       26.8117802315
  H         4.3995268334       12.7572658477       23.3606822498
  H         3.7515323644       12.8545464157       24.9354872513
  C         5.0239605295       14.3902378388       24.5757191691
  C         2.6034563031        9.5092433450       19.9664880068
  C         0.1126728974       11.2749709162       26.9605770498
  H         0.6720792720        9.6488169775       25.8497670793
  C        -0.3903949126       12.9819915184       28.0655744581
  H         5.6902207315       13.8048509535       25.1228602032
  H         4.6172541671       15.1782141482       25.1768537769
  C         5.8537454942       15.0480911584       23.4678446726
  C         2.4481759873        8.0944805396       19.7909642589
  C         3.1140410139       10.2867851953       18.7837276974
  C        -0.2860158475       10.5670115373       28.2563001101
  C        -0.6089239513       11.9037525670       28.9053466822
  S        -0.7443166653       14.4121209222       28.8399918865
  H         6.4147872001       15.8520112839       23.9988740971
  H         5.1948776737       15.5292713269       22.7945451702
  C         6.8313583590       14.0181570056       22.9379543086
  N         1.9676010715        7.1377544642       20.7040408774
  C         2.6752355105        7.4968549407       18.5058760055
  C         3.4077423021        9.7284182602       17.5489503576
  H         3.3647909035       11.3323410525       18.9712353318
  C         0.8322757474        9.8349707091       29.0837240865
  C        -1.5948382057        9.6537797379       28.0046879476
  C        -0.9767353673       12.2333186757       30.2538105016
  C        -1.0953232942       13.5792188997       30.3113436821
  H         7.7843611283       14.5732583308       22.8264762380
  H         7.0345518510       13.3499748705       23.7343191550
  C         6.3458290549       13.4430579046       21.6019633139
  S         2.1098578726        5.6550950417       20.0069884311
  N         2.4789933561        6.1258353450       18.5282885900
  C         3.0574413390        8.2731565064       17.3512873840
  H         3.9571648706       10.3515133273       16.8945081604
  H         1.0349951386        8.9041211207       28.6675941183
  H         0.5229844583        9.5676149996       30.0553698390
  C         2.0975043817       10.6367692211       29.3398968140
  H        -1.3611119995        9.0574295606       27.1178180247
  H        -1.6929301081        9.0008413002       28.8935801783
  C        -2.9065051108       10.4080933580       27.7734193838
  H        -1.2526756582       11.4699910767       30.8980463118
  C        -1.5619668640       14.2986095922       31.5860319959
  H         5.5406777016       14.0345998160       21.1331534073
  H         5.8212236395       12.5096203510       21.7962256917
  C         7.4938576248       13.4118019380       20.5941650555
  C         3.3169867463        7.5902334684       16.1568120591
  H         2.4640504918       11.0622764849       28.3775385130
  H         1.7191275209       11.4509008316       30.0017278236
  C         3.2723734935        9.8977846339       29.9770215262
  H        -2.6846937990       11.1929912693       26.9958946701
  H        -3.1074680464       11.0212189839       28.6365130150
  C        -4.1640598302        9.5693626333       27.3691472283
  C        -1.5764294851       15.7207964615       31.7552898214
  C        -1.8849738605       13.5352645878       32.8149576482
  H         8.1699672170       14.1887960187       20.8808542138
  H         7.9677674056       12.3904026584       20.5778743005
  C         6.9629597698       13.7850846125       19.1867904681
  H         3.0388420867        6.5608181629       16.2168401084
  C         3.6456457599        8.0831673053       14.9363272948
  H         3.5652759142        9.1766182416       29.1990047688
  H         2.9738665377        9.4046465095       30.9125799929
  C         4.4477445485       10.7849199884       30.3941443846
  H        -3.9202958654        8.9578780045       26.4753174743
  H        -4.3837223492        8.7303687559       28.0813823216
  C        -5.3653676451       10.4053893872       27.1367128197
  N        -1.2028979065       16.5974475881       30.7483915721
  C        -1.9124635954       16.3964856784       32.9110295177
  C        -2.0508277437       14.1628444190       34.0142633727
  H        -1.7998924317       12.4252561118       32.8088332379
  H         5.9202199510       13.4751815964       19.0020879906
  H         7.1119603561       14.8189945522       18.8488487162
  H         7.4339542405       13.1675341731       18.4774478084
  S         4.0313875297        9.6582091935       14.4595996460
  C         3.8550570733        7.1067866342       13.8408711911
  H         4.8305937740       11.2426599102       29.5146256087
  H         4.1283441241       11.6136516887       30.9708839966
  C         5.6374703463        9.8870198838       30.9503925032
  H        -5.1727034714       11.2626227445       26.5358980942
  H        -5.6366137840       10.7732848836       28.1616331358
  C        -6.6265401707        9.5923545789       26.6170912810
  S        -1.5054051551       18.0604606696       31.2954172555
  N        -2.0207872085       17.7621133009       32.8208489151
  C        -2.1545243559       15.7164245311       34.1668155913
  H        -2.0691918605       13.4937129474       34.9408884446
  C         4.3976824093        9.1101707046       12.8426276941
  N         4.4161723027        7.7292434352       12.7988621053
  O         3.5859259030        5.9389307728       13.9370736890
  H         6.0397512567       10.4205644322       31.7796952030
  H         6.5288088774        9.9067211821       30.2553756553
  C         5.3032005069        8.4653295518       31.4463419284
  H        -6.1396355592        8.7438680445       26.0066607053
  H        -7.2438329611        9.0950362177       27.3620912079
  C        -7.4012288516       10.5776152728       25.6895657112
  C        -2.3826877134       16.4462890357       35.3350197868
  S         5.0391676215       10.0631875280       11.4662384537
  C         4.5499611932        7.0293486444       11.5654412026
  H         4.6443997359        8.4996919998       32.3481651654
  H         4.6816346690        7.9827696905       30.6384862341
  C         6.5799805956        7.7071964329       31.7557703031
  H        -6.7697495295       11.0844601591       24.8886559881
  H        -7.8917592626       11.3289865876       26.2907538491
  C        -8.5081411961        9.8555625283       25.0536521061
  H        -1.9780361898       17.4344508101       35.3174957073
  C        -2.8087951556       16.0806454273       36.6131272283
  H         5.3276177851        7.4839355490       11.0117576478
  H         4.8501578828        6.0144913614       11.7123964385
  C         3.2201788489        7.1309769839       10.8479988649
  H         7.2099068703        8.2268352002       32.4602048281
  H         7.0811350180        7.5431162253       30.7662872160
  C         6.2276514268        6.3300313528       32.3670599677
  H        -8.7292219447       10.3837409825       24.1146817203
  H        -8.3083433406        8.8744867845       24.7439224118
  C        -9.7655283469        9.7868272392       25.8639114068
  S        -3.2972033066       14.5011305758       37.0000650327
  C        -2.9510867949       17.0908215499       37.6515711611
  H         3.2452618342        6.5008772974        9.9677958233
  H         2.4905310199        6.6633290588       11.4733689668
  H         2.8862235923        8.0791612432       10.6714863251
  H         7.0919909888        5.8392634339       32.8199943927
  H         5.8012759421        5.5369988672       31.7594303947
  H         5.5182919683        6.5290557897       33.2182170798
  H        -9.6969002071        8.9414583852       26.5396847158
  H       -10.5852886429        9.5228063638       25.2079733142
  H       -10.0751276584       10.6295860289       26.5181054176
  C        -3.8018840932       15.1590932589       38.6034713974
  N        -3.6871284635       16.4826419161       38.7100473702
  O        -2.6512469434       18.2746498363       37.5422617522
  S        -4.6708956458       14.2837496238       39.8642645998
  C        -4.0078439732       17.2123855338       39.9134598305
  H        -4.0907787116       18.2708510228       39.7469955409
  H        -5.0035006246       16.9525437683       40.3609829883
  C        -2.9421870403       17.1268774103       41.0523877627
  H        -3.1250106838       16.6290597791       41.9834557970
  H        -2.0313529376       16.6437047419       40.6656678999
  H        -2.5976466539       18.0981311398       41.2651814946
