352
i=
  H         4.7809619642        1.6666688536       12.1081078225
  C         4.0281374958        2.4005768054       12.2013294397
  H         4.4972003143        3.3511251120       12.3031462146
  C         3.1020692081        2.4561566774       10.9278080565
  C         3.2034789022        2.0638258931       13.4198716913
  C         3.8791142598        2.6258683437        9.7075442334
  H         2.3050093916        3.1720095214       11.1321085879
  H         2.5086821861        1.5257936255       10.8986680440
  H         3.8949066221        1.8666865709       14.1948809734
  H         2.6296967872        1.1097023587       13.3320352759
  H         2.5389243897        2.9470543101       13.7383141108
  C         4.7950261165        1.4724729388        9.2998527434
  H         3.1872908680        2.8725217047        8.8927357410
  H         4.4635137690        3.5745080921        9.7520332170
  C         5.4771912676        1.8211066856        7.9268608991
  H         4.1318068186        0.6497857894        9.1667667995
  H         5.4755706604        1.3356115592       10.1430105377
  C         6.6780611819        2.6740864591        8.1131885717
  H         4.8163757263        2.2337013684        7.1178173727
  H         5.7065102542        0.8806998844        7.3920770307
  C         7.8157287021        1.9592477324        8.7601528329
  H         6.8472349035        3.0783495081        7.0935793064
  H         6.4316018592        3.4667676931        8.7070426414
  C         9.1264392937        2.7513356019        9.0958591862
  H         8.0715030047        1.1095883125        8.1696841465
  H         7.5128558489        1.5346990170        9.7014880012
  C         8.6516960349        4.1134125103        9.7684281362
  C         9.5551860481        3.4920133229        7.8344547968
  C        10.2713585829        1.9801150669        9.9346060948
  C         8.9350820600        5.2421762732        8.9521144852
  C         8.1134468494        4.5102028060       11.0446907948
  C         9.4878375152        4.8409514056        7.7614535621
  C        10.0739764578        2.9069199975        6.6808359236
  H         9.7069902355        1.4653628732       10.6609022878
  H        10.5992369289        1.1572370756        9.3176866534
  C        11.4930026067        2.8045582743       10.4109127018
  S         8.5263793824        6.7584480587        9.7006575402
  C         8.0367884274        5.8780047377       11.1533350877
  H         7.9758953336        3.6348989001       11.7496767559
  C         9.9407003348        5.4794746578        6.6528370247
  H        10.2249452296        1.8288666114        6.6386827665
  C        10.4110300304        3.5562472522        5.5434254158
  H        11.1139861065        3.7505624112       10.6227573702
  H        12.2447286924        2.8999194714        9.6443100349
  C        12.0219264170        2.3115047343       11.7629606487
  C         7.6982474452        6.5740765523       12.4233111841
  C        10.3358799893        4.8750657614        5.4681413962
  H         9.8413460664        6.5451899905        6.5115524265
  C        10.8604714766        3.2628409908        4.2358114602
  H        13.1366035425        2.4493701480       11.8082580703
  H        11.9184682951        1.2949843573       11.8171427403
  C        11.3416429205        3.0889604710       12.9067903559
  C         7.6046587641        7.9838276354       12.6928935966
  C         7.3530475817        5.6681251032       13.5686068238
  C        10.7130793305        5.6453759227        4.2349788086
  C        10.9653499795        4.3598378401        3.4620315475
  S        11.2173179978        1.7089271993        3.4642615145
  H        11.9201577421        3.9238957640       13.1980397009
  H        10.3995801172        3.5458679732       12.6876529772
  C        11.1067831251        2.1848412644       14.1129035663
  N         7.6360454617        8.9707421232       11.7384099132
  C         7.3330978329        8.4317908479       13.9899871895
  C         7.1108818259        6.1738028089       14.9370632124
  H         7.5685762327        4.5919351443       13.4981297133
  C        12.1052691934        6.3387373982        4.6197649625
  C         9.5823074509        6.4586295510        3.6766012614
  C        11.3104870903        3.9852817780        2.1290042632
  C        11.4318038496        2.6109135281        1.9699515644
  H        10.9311629352        1.0907323701       13.8377873740
  H        10.2106420616        2.4991287179       14.6587810067
  C        12.3671243939        2.2440485295       14.9978702374
  S         7.5356400199       10.3887043228       12.5340724314
  N         7.2538448104        9.8030081232       14.0031016845
  C         7.0225530119        7.6732727788       15.1363263061
  H         7.1212918447        5.5518483268       15.8160728492
  H        11.8304719942        7.0319228935        5.4337925648
  H        12.3500900854        6.9953647160        3.8363711927
  C        13.3286447226        5.4605116491        5.0315285696
  H         9.2957687165        7.2005747434        4.3956435097
  H        10.0703966157        6.9191217621        2.7871120267
  C         8.4178378561        5.5956521766        3.2949604631
  H        11.3845065853        4.7079501176        1.3237307084
  C        11.6456311315        1.8714496820        0.6612246158
  H        13.1785007866        1.8156639319       14.4283947856
  H        12.6350303033        3.3040038571       15.1010073409
  C        12.0323707390        1.5879155213       16.3073824049
  C         6.8216543413        8.2545329506       16.4343808730
  H        13.0886354871        4.8139410602        5.8769394810
  H        13.5176901394        4.8206465853        4.1691798613
  C        14.5541881214        6.3212246709        5.3518233594
  H         8.2210268450        4.8607606863        4.0704605387
  H         8.5983306176        5.0766033482        2.4373581343
  C         7.1268474237        6.3702637254        3.0845342001
  C        11.8319108678        0.4485448388        0.5197739691
  C        11.9770832467        2.6247616565       -0.5908657630
  H        11.7097105172        0.5958077053       16.1316567627
  H        11.1695080275        2.0737507359       16.7823505836
  C        13.0527727401        1.6807993846       17.3109703495
  H         7.1255515044        9.2907459410       16.4590243541
  C         6.5491027408        7.7099705749       17.6883601421
  H        14.3618972379        6.9116784857        6.2814706373
  H        14.8579053464        6.9507241999        4.5212002146
  C        15.7631417605        5.4352732577        5.6602667298
  H         6.9519255146        6.9770564810        4.0145279231
  H         7.2147630852        7.0382364789        2.2763368038
  C         5.9339540192        5.4230368345        2.8743108951
  N        11.5726504573       -0.4909429121        1.5277612580
  C        12.1291330032       -0.1947983841       -0.6344338055
  C        12.1818463492        1.9514007065       -1.7809196403
  H        11.8296152732        3.6747048730       -0.6432014451
  H        13.1759866689        2.6419430873       17.7493692575
  H        13.9765878831        1.4529067858       16.8595948202
  H        12.7797215305        1.0387125669       18.1556384276
  S         6.3036597086        6.0665444339       18.1621735387
  C         6.4717377367        8.7037743034       18.8048267728
  H        15.4178483910        4.5955837458        6.2991886979
  H        16.1660639099        5.0569120953        4.6833527386
  C        16.8087934001        6.1215716340        6.5213274723
  H         5.5991776420        5.0539192037        3.8654100830
  H         6.2505741516        4.5058168908        2.3523552208
  C         4.6526442811        5.9010439469        2.1440042731
  S        11.9531166222       -1.9696521365        0.9924978958
  N        12.3090027550       -1.5159205520       -0.4937843386
  C        12.2882793385        0.4521359881       -1.8416712545
  H        12.2664515253        2.5144342338       -2.6453253333
  C         6.0161235760        6.7136643936       19.7870072914
  N         6.0376031120        8.0615428585       19.9064937654
  O         6.6560400333        9.9150828097       18.6819170079
  H        17.2472277922        6.8905853636        5.9151310497
  H        16.3429728883        6.6671035670        7.3496560622
  C        17.8739447716        5.2383570445        7.0145880956
  H         4.8864915856        5.9666463163        1.1155373235
  H         3.8468752583        5.1919351680        2.2421049076
  C         4.0821904923        7.2217966278        2.6017566909
  C        12.6951109985       -0.3683806585       -2.9068536904
  S         5.7007921371        5.7817346199       21.2008473298
  C         5.8966423110        8.7056607417       21.1539222334
  H        17.5074821604        4.9124010117        8.0486521872
  H        17.9018766191        4.3894539932        6.3665434592
  C        19.1768976519        5.9139191977        7.3810990435
  H         4.5132273317        7.4506913684        3.5812918504
  H         3.0030385505        7.2558748417        2.5899905968
  C         4.4516558828        8.3544490070        1.6896126449
  H        12.4306962649       -1.3748138411       -2.8292564560
  C        13.0775577489       -0.1456062401       -4.2036434769
  H         5.0641074257        8.3201188523       21.7711716470
  H         5.6146855835        9.6802695615       20.9587962019
  C         7.1708880732        8.7476756707       21.9854281223
  H        19.5893662182        5.4323061072        8.2491522796
  H        18.9993334444        6.9668640758        7.5295484390
  C        20.0807209076        5.7906455193        6.1691677366
  H         5.4862098990        8.4974722352        1.9954396777
  H         4.3720235088        7.9917100054        0.5810000639
  C         3.6945294066        9.6275695588        1.9026071590
  S        13.6861931842        1.3552253320       -4.7788196119
  C        13.0675463272       -1.2270055008       -5.2147827761
  H         7.0404407987        8.4438624493       23.0199783356
  H         7.5644298265        9.7582669360       21.9792131990
  H         7.8710090062        8.1185180505       21.5682093548
  H        20.4402232736        4.8076547096        6.1741812781
  H        19.4334421827        5.9140056072        5.2643638393
  H        20.9152541674        6.4359430870        6.2888353202
  H         3.7605271627        9.7597787124        2.9074633838
  H         4.0596165184       10.4682846509        1.2929026936
  H         2.6264255433        9.4317054546        1.6074442604
  C        13.7678031411        0.5725051204       -6.3377401270
  N        13.5148616123       -0.7490805316       -6.3822460812
  O        12.5628793233       -2.3597510201       -5.0520811802
  S        14.3496998493        1.4358743513       -7.7642148067
  C        13.5914845019       -1.4383200753       -7.6205453988
  H        13.6980623951       -2.4424506030       -7.1725808040
  H        14.5751230871       -1.1509189013       -8.1225788625
  C        12.4413314731       -1.2843904686       -8.4988180751
  H        11.5015871913       -1.2405130279       -7.9419660606
  H        12.3501903510       -2.0471738556       -9.2900836295
  H        12.5416633820       -0.2201750041       -8.8535892114
  H        -1.2984736424       14.1675633682       15.6138144596
  C        -2.3701680520       14.3390903791       15.8706074440
  H        -2.6649733028       15.2663273487       15.3051013119
  C        -2.5122185108       14.3868972244       17.3860527529
  C        -3.0706776865       13.1661496379       15.2146918264
  C        -2.1778735705       13.0935232346       18.1055844261
  H        -1.9331539099       15.2554956669       17.7822379970
  H        -3.5336010467       14.6284717162       17.6432174499
  H        -2.4315844862       12.2762284377       15.2133705533
  H        -4.0247506543       12.8937407472       15.7121040682
  H        -3.2277705116       13.3732222574       14.1148439146
  C        -1.2812011560       13.2066480897       19.2863435623
  H        -1.5220182031       12.3762644889       17.5058051578
  H        -3.0605701321       12.4205798268       18.2958831285
  C        -2.0602072109       13.2113679297       20.5884156649
  H        -0.5318990282       12.4573791398       19.3498906153
  H        -0.6736990021       14.1645385044       19.2220694916
  C        -1.2537702832       12.7358443240       21.8344996065
  H        -2.8404806322       12.4795615292       20.5464310805
  H        -2.6868583252       14.1234339193       20.7149312836
  C        -0.0410233599       13.6162734479       22.1535844848
  H        -1.9253382391       12.7496854067       22.6979682651
  H        -1.0448698606       11.7080074276       21.6178535637
  C         0.9854355432       12.9525712360       23.0050184112
  H         0.4501784860       14.0952871379       21.2274403912
  H        -0.2452906648       14.4441250268       22.8055205200
  C         1.4707224608       11.6497353996       22.2799715031
  C         0.4048885008       12.1818790767       24.1610706168
  C         2.1008022418       13.8864507869       23.4011351001
  C         1.0136564025       10.4809184964       22.9056150108
  C         2.2704510066       11.2610042270       21.1693861772
  C         0.4180725710       10.8213699167       24.1335946678
  C        -0.1363370411       12.7781459319       25.3557656688
  H         2.4218876725       14.4046917528       22.5345743792
  H         1.6178995084       14.5406874491       24.1597205261
  C         3.3073624407       13.1556507723       24.0234615108
  S         1.4138394755        8.9935844152       22.1629506326
  C         2.2744471592        9.9377759941       20.9331496800
  H         2.6775043679       11.9820365620       20.5079571872
  C         0.0810121068       10.1620256672       25.2622913168
  H        -0.2319973297       13.8629549093       25.5007346803
  C        -0.4919933371       12.0842588722       26.4793340643
  H         3.7741504434       12.5830632262       23.2338864585
  H         3.0988567123       12.4979279708       24.8800963213
  C         4.4707852672       14.0858693106       24.5015109459
  C         2.8171797800        9.2542406677       19.7183009704
  C        -0.3408955823       10.7380075286       26.4991634187
  H         0.2218922914        9.1314894896       25.2991032931
  C        -0.8819001387       12.4241559772       27.6985921077
  H         5.2652023432       13.5349499976       24.9533984581
  H         4.1397419508       14.7825118231       25.2645176505
  C         5.1450925127       14.7997183714       23.3652789250
  C         2.8314887276        7.8558255788       19.5130799677
  C         3.3011156095       10.0802539844       18.5501828386
  C        -0.5926232631        9.9989918417       27.7710702659
  C        -0.9268981466       11.3029271330       28.5238265129
  S        -1.1840300273       13.9197970031       28.4523045558
  H         5.9480046894       15.4185643454       23.8472333979
  H         4.4502630011       15.5179717551       22.9184555362
  C         5.9621977131       14.0013096266       22.3096099682
  N         2.6425176802        6.7820660229       20.4772374448
  C         3.0382353002        7.3101533728       18.2184983880
  C         3.5113485376        9.4617111858       17.3070335924
  H         3.3551994539       11.1366903937       18.6770674814
  C         0.6026458564        9.1889305864       28.3931113731
  C        -1.7839910724        9.0315305242       27.5247562136
  C        -1.2746858920       11.6756914681       29.8196464395
  C        -1.3785430514       13.0453524154       29.9692620902
  H         6.8705380121       14.5548005510       22.0418582366
  H         6.3092778387       13.0338780767       22.6678480453
  C         5.2194841069       14.0257971041       20.8792666412
  S         2.7517012024        5.3175308517       19.7084832981
  N         3.0198708998        5.9112984287       18.2202325916
  C         3.3884091887        7.9931460584       17.0484474255
  H         3.9359381465       10.0716737199       16.5848829981
  H         0.9552426315        8.5252541103       27.6159949818
  H         0.2530076482        8.4771456846       29.1650691181
  C         1.7417595724       10.1583899391       28.9292836778
  H        -1.5293042103        8.3041141256       26.7422357029
  H        -1.9644273653        8.3309795620       28.3785397863
  C        -3.1238480764        9.8523408133       27.3741027056
  H        -1.2797271072       10.9254909186       30.6042433593
  C        -1.5451079068       13.6959121759       31.3503753300
  H         5.1026494828       15.0646066921       20.5598744829
  H         4.2142353603       13.6351581334       21.1509376995
  C         5.8512197948       13.0733556514       19.8636421018
  C         3.6076433674        7.2556039872       15.8327431678
  H         1.8547215375       10.9223423957       28.1838598294
  H         1.3713632107       10.7556941241       29.7573118138
  C         2.9078303031        9.3425126479       29.2866291578
  H        -2.9884768056       10.5793199109       26.6163832346
  H        -3.3477383329       10.4157552371       28.3114592671
  C        -4.2810690051        8.9309945928       26.9602741524
  C        -1.6660595235       15.0599334619       31.6068495389
  C        -1.5719407003       12.9482607984       32.6646562550
  H         6.1663268837       12.1844849709       20.3594864018
  H         5.0946525236       12.8406050377       19.1330894927
  C         7.1560591014       13.5615130358       19.2174303265
  H         3.3717347527        6.2450072335       15.8540132463
  C         3.6862213469        7.6802645168       14.5518999346
  H         3.4539627535        8.8717123343       28.4592463774
  H         2.6098415472        8.5848971031       30.0500220853
  C         3.8551468474       10.2670334631       30.0530753793
  H        -3.9265230358        8.4536203323       26.0847568387
  H        -4.4468587557        8.2917597724       27.8774272537
  C        -5.5684331716        9.7145077502       26.6271404617
  N        -1.4332733656       16.0039153523       30.6890811615
  C        -1.9640514147       15.6344493421       32.7903754258
  C        -1.7946014424       13.4375950401       33.9117836352
  H        -1.4118199816       11.8302522220       32.5558236862
  H         7.8731557718       13.8819736357       19.9853978805
  H         7.5885194921       12.5688956435       18.8532454671
  H         7.0916550475       14.4107117997       18.4495019766
  S         3.9350875032        9.2948685876       14.1579582351
  C         3.6970251805        6.7004928970       13.4761789516
  H         3.6835566963       11.3023996892       29.7389887201
  H         3.5046007627       10.3911083717       31.0869083549
  C         5.4108176668        9.9085995059       30.0127419257
  H        -5.9108021009       10.4703928446       27.4287656982
  H        -6.4361104287        8.9955351598       26.6636869470
  C        -5.4698389889       10.4954097038       25.2804900680
  S        -1.5995730878       17.5017418705       31.2947758130
  N        -2.0704148168       17.0180520977       32.7267376381
  C        -2.1447392971       14.8879118914       34.0013925360
  H        -1.9329624139       12.7593123833       34.7428859637
  C         4.2123199947        8.6643476364       12.4746151427
  N         3.9898828311        7.3727477304       12.3356969379
  O         3.4696675474        5.4864247667       13.6559397784
  H         6.0219966987       10.7647149192       30.2942241256
  H         5.7763233129        9.7004205853       29.0283504687
  C         5.8704877662        8.7745635617       30.9763871943
  H        -4.5753378731       11.1221481723       25.1939252196
  H        -5.3045983823        9.7145265583       24.4464794806
  C        -6.6948508630       11.4101798695       25.0149922998
  C        -2.4194348029       15.6034938040       35.2015785179
  S         4.3007742204        9.6995166135       11.1087325986
  C         3.9054123300        6.6068570275       11.0530164879
  H         6.9163073243        8.9886611406       30.9860373940
  H         5.6084496176        8.9916165692       32.0265528793
  C         5.5841396296        7.3271947930       30.6152034169
  H        -6.5916885068       12.1403775636       24.1722005700
  H        -6.8472929147       11.9878558454       25.8637515382
  C        -7.9972495507       10.5877369033       24.6496952623
  H        -2.0920386020       16.6289482527       35.1883106531
  C        -2.9109363752       15.2823842110       36.4140770090
  H         4.5726426884        7.1047262421       10.2515657352
  H         4.4459206758        5.6640532282       11.2224783822
  C         2.4005408609        6.5350663001       10.5009282930
  H         4.8386425669        7.1588367855       29.9073926760
  H         5.4328518335        6.8067003519       31.5247856109
  C         6.7871029916        6.5912433474       30.0745844817
  H        -8.3435908095       10.6737353850       23.6194491505
  H        -7.6620329691        9.5699668115       24.6618742324
  C        -9.1214658686       10.7993765354       25.5927106075
  S        -3.4182583093       13.7018804771       36.9069032756
  C        -3.0548051805       16.3450952987       37.4716621499
  H         2.3372590138        5.7452598441        9.6844938798
  H         1.7671017486        6.4786260481       11.3858643731
  H         2.1660653817        7.4736139473        9.9818167520
  H         7.3448734002        7.0774659957       29.3102992240
  H         6.3149966510        5.6749759575       29.7064105806
  H         7.5712704734        6.4179213583       30.7893124432
  H       -10.1396173481       10.7176449644       25.2161769857
  H        -9.0166063044       11.7899810743       26.0468956330
  H        -9.1179817851       10.0162484417       26.4177366137
  C        -3.9599642303       14.5491404923       38.4087926166
  N        -3.7285473181       15.8551271962       38.5328728572
  O        -2.7312026660       17.5248478529       37.3431482442
  S        -4.7711427318       13.8050146095       39.7856657185
  C        -3.9800340955       16.7257562840       39.6370436989
  H        -4.1552103981       17.6842557125       39.1727356329
  H        -4.9118296572       16.5339870507       40.1490561992
  C        -2.8307223878       16.8270943259       40.6265827330
  H        -2.9993463627       17.7713679737       41.1567737750
  H        -2.9055462082       15.9758618192       41.3062716337
  H        -1.9369661159       16.8518331270       40.1184933241
