352
i=
  H         3.8674634697        1.4341720274       12.5696155854
  C         3.4119139949        2.4263125263       12.5666583711
  H         4.2989925105        3.1150573269       12.6364168991
  C         2.7179255959        2.7562689057       11.2548404544
  C         2.4799452761        2.7074925403       13.8603955835
  C         3.6008305300        2.7349167511       10.0360027230
  H         2.4295220169        3.7668950483       11.2251828557
  H         1.9102905577        2.0430297362       11.0824697567
  H         2.4540583881        3.7683070479       14.1126129542
  H         2.8499189141        2.1827645875       14.7901934665
  H         1.4375574026        2.3150104613       13.6468090482
  C         4.2839481193        1.3947402654        9.6284165265
  H         2.9545620248        3.1635560499        9.1786875376
  H         4.3858210826        3.4403760432       10.3003968003
  C         4.8266873911        1.3996920176        8.2228788123
  H         3.5019523274        0.6690378801        9.6427723751
  H         4.9147713919        1.0829848091       10.4101178479
  C         6.0729885788        2.2391311521        8.2351894062
  H         4.1706870829        1.8357752987        7.4764797814
  H         5.0246157656        0.3926747431        7.9789035028
  C         7.2952623954        1.4981358920        8.7551687182
  H         6.4803778150        2.6012568254        7.2871178557
  H         5.8500503035        3.1641142711        8.7927015645
  C         8.4844865165        2.3255992566        9.1870312641
  H         7.5882902901        0.7141203124        8.0427056491
  H         6.9869091893        0.9472395208        9.6270484665
  C         8.2199432668        3.7142882238        9.8634751392
  C         9.0230307192        3.0400144734        8.0132277201
  C         9.5403689235        1.5069562699        9.9977843691
  C         8.4936859124        4.8473645036        9.0833741970
  C         7.8438379119        4.1568360801       11.1540654016
  C         9.0144957766        4.4192707800        7.9304811876
  C         9.6031695218        2.4858732512        6.8543444440
  H         9.1105924729        1.0431163167       10.8926906051
  H         9.8237244526        0.6071807810        9.4165317437
  C        10.8588676628        2.2817784060       10.2102044146
  S         8.1964944248        6.3560223149        9.8488081793
  C         7.7972087120        5.5355054560       11.3240735428
  H         7.6865141367        3.4800217145       11.9577987228
  C         9.5547787315        4.9987389934        6.8225846124
  H         9.5260020105        1.4394379303        6.8174470460
  C        10.0668238734        3.0751529773        5.7043416502
  H        10.7769780740        3.3528444428       10.5228888806
  H        11.4786691926        2.3139836419        9.2977825399
  C        11.8191228825        1.8931211383       11.3251883578
  C         7.4137315065        6.1883386661       12.6438125022
  C        10.1140889268        4.4396068001        5.6477365708
  H         9.6184375958        6.0287548195        6.7616149470
  C        10.5583131667        2.6830479537        4.5495892368
  H        12.6547964409        2.6139565661       11.2008231364
  H        12.1795373800        0.9422193306       11.2230327913
  C        11.3027808845        1.9911184939       12.7443261567
  C         7.5318168081        7.5674121211       12.8825654355
  C         6.9911426811        5.2954835467       13.8288995870
  C        10.6120111584        5.1454317097        4.4974105935
  C        10.8870521074        3.7870634956        3.7972848000
  S        10.9210287463        1.1826472296        3.8053793194
  H        11.3666103247        3.0507543360       13.0115867409
  H        10.2437398228        1.7559016841       12.7298017546
  C        12.1351051896        1.1915418848       13.6909878517
  N         7.8691741790        8.5401930129       11.9200698034
  C         7.3228838263        8.1190950524       14.1465916103
  C         6.8188744885        5.9131104107       15.0960518410
  H         6.6676244778        4.3366050214       13.6536419064
  C        11.8098405328        6.0165414817        4.7922937252
  C         9.4892571472        5.9235733025        3.7766035472
  C        11.3666016176        3.3737720656        2.5761365149
  C        11.5445874985        2.0163871766        2.4587943096
  H        13.1359904006        1.2130086941       13.4498281384
  H        11.8921930008        0.1132001945       13.6069911691
  C        11.9710198788        1.6866354216       15.1320393561
  S         7.9628913774        9.9972474769       12.6092480683
  N         7.6600735246        9.4846276074       14.1099296285
  C         7.0004930326        7.3645120262       15.2881286661
  H         6.5498216010        5.2629306778       15.9171668789
  H        11.5309015169        6.6188670330        5.7245797323
  H        12.0834045512        6.6608599776        3.9116558122
  C        13.0774779198        5.2524111390        5.0761793647
  H         9.1485855137        6.7521541595        4.3555848838
  H        10.0116330275        6.2129631788        2.8515515700
  C         8.2870250089        5.1747120627        3.2129378009
  H        11.5927739532        4.0626666602        1.7901862145
  C        11.9311800962        1.3114937645        1.1754580443
  H        11.6762825500        2.6938601601       15.2852388519
  H        11.1165960952        1.1307757966       15.5913479751
  C        13.1966851588        1.4850500502       15.9982262335
  C         6.7887026467        8.0869037397       16.5294225143
  H        12.9169693911        4.7111400553        6.0393439916
  H        13.3492325586        4.5541135354        4.2791028498
  C        14.2606175049        6.2337913342        5.3305430856
  H         7.7899157824        4.6532431876        4.0539582873
  H         8.6544445316        4.3862398454        2.5484184631
  C         7.2754146973        5.9950597193        2.5197733285
  C        11.9199796299       -0.1044706440        1.0198901872
  C        12.2254816619        2.1283804836        0.0139988913
  H        14.0516235956        2.1052853723       15.6352768072
  H        13.5196586491        0.4277268077       15.8394668142
  C        12.8482533029        1.8414100771       17.4826599899
  H         6.5811536898        9.0973362974       16.4886894651
  C         6.3911494663        7.6690738785       17.8120938167
  H        14.2233839149        6.6610537836        6.3209228671
  H        14.2075816197        7.0308048922        4.6217151537
  C        15.6310200117        5.6257298738        5.3007801442
  H         7.0267951669        6.9106687427        3.1095649814
  H         7.7315095330        6.2731568512        1.5071491874
  C         6.0734961178        5.1301105363        2.1998174339
  N        11.5686944452       -1.0515364275        1.9647075880
  C        12.1608066247       -0.7461297762       -0.1849308589
  C        12.5712293851        1.4446990579       -1.2041932113
  H        12.2411453488        3.2024295497        0.0872236513
  H        12.7664877321        2.9242102405       17.5771421227
  H        13.6766535103        1.4114579764       18.0645045999
  H        11.9217801154        1.4166696820       17.9243195815
  S         5.9260961563        6.0466018654       18.2238233377
  C         6.2437709450        8.6303128528       18.9127390015
  H        15.6619915440        4.6129044424        4.9749816522
  H        16.3327390148        6.2456185984        4.7163635680
  C        16.1894751836        5.5462960667        6.7457144205
  H         5.4680535422        5.0186135294        3.1070566399
  H         6.4802884314        4.1484047238        1.8405738045
  C         5.1441071820        5.6730226706        1.2039023664
  S        11.5294148017       -2.5414221898        1.2981910832
  N        11.9937557649       -2.1368451888       -0.1737367370
  C        12.5636634899       -0.0511687622       -1.3350497841
  H        12.7515420982        1.9500038110       -2.1064758626
  C         5.7296194274        6.6161548500       19.8936861275
  N         5.9433378985        7.9489100253       20.0568595516
  O         6.3736318858        9.8175261335       18.8365157583
  H        16.3545111199        6.5234744907        7.1389647278
  H        15.5060636982        4.9947380552        7.3801257174
  C        17.5487404947        4.7901194599        6.8889042385
  H         5.5237349776        5.8939974626        0.1784605631
  H         4.3669568397        4.9018748946        1.0514741086
  C         4.4527647580        6.8964270154        1.7363404904
  C        12.7275462985       -0.6341369712       -2.6501924036
  S         5.3069654724        5.6430222947       21.2304503461
  C         5.8682701754        8.5152304173       21.4189516758
  H        17.5988095297        4.2793339815        7.8706939796
  H        17.5510583858        4.0005072923        6.1626870232
  C        18.7735910368        5.6705550566        6.6756947791
  H         4.7491865338        7.0483027474        2.8089695158
  H         3.4409978817        6.5601720039        1.8794162330
  C         4.5314240355        8.1634962116        0.8450640272
  H        12.6747612760       -1.6914812125       -2.5798343777
  C        13.2985899321       -0.3247646836       -3.9053912274
  H         5.2350597529        7.9750273052       22.1150688100
  H         5.6350084361        9.5997796092       21.5246701066
  C         7.2861598837        8.7074522167       21.9674214588
  H        19.2501856350        5.7948153438        7.6112185576
  H        18.4278930948        6.6826694549        6.3313852945
  C        19.7629901950        5.0994431823        5.6238706748
  H         5.2955990500        7.9575898716        0.1133992056
  H         3.5596350741        8.3722871382        0.3906916491
  C         4.9234385268        9.5375710247        1.5401416386
  S        13.9580926449        1.2271867892       -4.3046982186
  C        13.4210311692       -1.3122457964       -4.9988958566
  H         8.0252004247        8.4317764467       21.2918874210
  H         7.3933285389        8.0569809507       22.8572682017
  H         7.5897572703        9.6687714947       22.3466814659
  H        19.6077914905        5.5119877065        4.6042871732
  H        20.7675522653        5.2502285534        5.9487908511
  H        19.6750719990        4.0246805917        5.4131829365
  H         6.0119215161        9.6677860291        1.4714112126
  H         4.4275820788       10.3337857807        0.9976979597
  H         4.6318295300        9.6485785466        2.5675981595
  C        14.4094290746        0.5085336166       -5.8791149991
  N        14.1391314548       -0.7874320635       -5.9984188868
  O        13.0090375484       -2.4475519687       -4.9505637099
  S        15.1501626956        1.3574857165       -7.2151210817
  C        14.1748673214       -1.5144665888       -7.2686892657
  H        14.3208133588       -2.5891647735       -7.1268310672
  H        15.0160025185       -1.1693027051       -7.8863528872
  C        12.8876442058       -1.3193456738       -8.1588972254
  H        13.0124023948       -0.5796884621       -8.9291459790
  H        12.0324431648       -1.1938915076       -7.4419445978
  H        12.6443844127       -2.2651465941       -8.7735175952
  H        -3.0200234128       14.8718247189       16.1706922550
  C        -3.0301358191       13.8632210239       16.2465168650
  H        -4.0508479648       13.6818216768       16.6227038925
  C        -2.0708925158       13.3231254110       17.2585805662
  C        -2.7810247895       13.2981962575       14.9097915684
  C        -2.4785064429       13.6700729435       18.6765432079
  H        -2.1048791946       12.2120234985       17.2361478210
  H        -1.0534042077       13.6601122127       17.1331359686
  H        -1.7517693275       13.4625113919       14.6928813855
  H        -3.0995882806       12.2545729791       14.7442975662
  H        -3.3576237983       13.8837254578       14.2570475469
  C        -1.8220365980       12.7619892172       19.7328428462
  H        -3.5742592085       13.5551597275       18.7284600012
  H        -2.2897527192       14.7278477570       18.8992177687
  C        -2.3599558714       12.9569281026       21.0899698158
  H        -1.8196131569       11.6862570170       19.5303055186
  H        -0.7916079799       13.1167577992       19.7690393780
  C        -1.3993167887       12.5514431478       22.2191535040
  H        -3.3885805725       12.4606791405       21.1770802632
  H        -2.6579314068       14.0169615901       21.2925547740
  C        -0.2047690543       13.4462958117       22.3845850490
  H        -1.9370253117       12.6750700153       23.1847572369
  H        -0.9873776628       11.5298804379       22.0215317661
  C         1.0083592702       12.7703724810       22.8618874792
  H         0.0370852878       13.8559699720       21.3999433661
  H        -0.4420647960       14.2959636466       23.0689649937
  C         1.3402883360       11.4255768727       22.2770182726
  C         0.5763831979       12.0723573568       24.1271174499
  C         2.2165588403       13.7121202014       22.9669416385
  C         1.1971570510       10.2987987697       23.0962576496
  C         1.8670886670       11.0718522266       21.0178574769
  C         0.6565067337       10.7389467608       24.2867288828
  C         0.2082700655       12.6812066059       25.2877363803
  H         2.5652025174       13.9790517709       21.9146501294
  H         1.8384157502       14.6112860583       23.5506655007
  C         3.3851191750       13.0790769368       23.7507509948
  S         1.7137232068        8.8172121875       22.3625947499
  C         2.1049055766        9.6878312769       20.9317964726
  H         1.8875976910       11.8713508450       20.2772813962
  C         0.3417667501       10.1310804444       25.4675436397
  H         0.3414732665       13.7420606933       25.3126058543
  C        -0.1272992759       12.0952503946       26.5110116009
  H         3.7405501076       12.1621211570       23.2901487144
  H         3.0516078586       12.8162812507       24.7916153003
  C         4.4951178458       14.0727719804       23.9016525797
  C         2.5491463112        9.1142959596       19.6218491424
  C        -0.1009446175       10.7869164949       26.6101829858
  H         0.6050536671        9.1058851103       25.5107960347
  C        -0.5771199745       12.4658868977       27.7427014889
  H         5.1926198759       13.6196003338       24.6399415512
  H         4.1468635456       14.9911696266       24.3702086512
  C         5.3296287645       14.2965631876       22.5838377717
  C         2.4916164424        7.7503801098       19.3463606686
  C         3.1004940864        9.9218255452       18.4892657968
  C        -0.6123095175       10.0714783240       27.8440792002
  C        -0.7880908182       11.3849491738       28.5576438610
  S        -0.8283431310       14.0058824280       28.5936533987
  H         6.2603616418       14.7258619185       23.0349927517
  H         4.8943657782       15.0751098535       22.0159457404
  C         5.8676726882       13.0313758910       21.8966102137
  N         1.9677782139        6.8315951761       20.2388742779
  C         2.6529476692        7.2064922507       18.0757282404
  C         3.3974405289        9.3844534507       17.2735824412
  H         3.4112347224       10.9113323229       18.6978863403
  C         0.5313947474        9.3237350807       28.5595605729
  C        -1.8467959024        9.1397191750       27.6881570525
  C        -1.2687852048       11.7307625267       29.8468829703
  C        -1.2274334876       13.0889843148       30.0636647820
  H         6.9396804827       13.1982828117       21.6717148984
  H         5.9425580975       12.1519985725       22.4998338863
  C         5.1686445820       12.8056379285       20.5288792440
  S         2.0993741930        5.3741332703       19.5496832734
  N         2.3393873207        5.8484924638       18.0423334357
  C         3.1240356038        7.9694875235       16.9137481954
  H         3.8335231985       10.0755784591       16.5751153863
  H         0.7467978566        8.4785516272       27.9116414842
  H         0.0745976231        8.7716614530       29.3538500189
  C         1.7339899313       10.1328404847       28.9331369084
  H        -1.5316614047        8.2571293223       27.1245776189
  H        -2.3227801258        8.7268769251       28.6121018274
  C        -2.9888271054        9.8595297664       27.0539763640
  H        -1.3713593657       10.9725571448       30.5951726785
  C        -1.4982214619       13.7781267905       31.3284807481
  H         4.1118019463       12.9325929819       20.6999527523
  H         5.2754484138       11.7752777172       20.2651366553
  C         5.6158905069       13.7009487961       19.3350544607
  C         3.4121117528        7.3252933316       15.6892006370
  H         2.1865544843       10.5791935954       28.0863888845
  H         1.3768215890       10.8860303658       29.7138481564
  C         2.8117836490        9.2217025936       29.5275652336
  H        -2.7598980936       10.3113346940       26.0771451967
  H        -3.1796038766       10.7272042657       27.6723911924
  C        -4.2589950320        9.0079838772       27.1517246738
  C        -1.5454662075       15.1661898069       31.5432467733
  C        -1.6453135650       12.9507003799       32.5505369189
  H         4.5588316488       13.9589483824       18.9356285224
  H         5.7852500906       14.6604996579       19.7966086509
  C         6.8396359287       13.2764257531       18.5437817240
  H         3.1299311107        6.2714243713       15.7278161668
  C         3.6740103428        7.8513796504       14.4818569767
  H         3.4551069131        8.7456710124       28.7867686450
  H         2.4513862987        8.3051519523       30.0391734374
  C         3.8132858243        9.9217606907       30.3939732023
  H        -4.1132342273        8.1615204803       26.5270858214
  H        -4.4036237872        8.6647517909       28.1713591333
  C        -5.4375723611        9.9167842130       26.6769719247
  N        -1.5094428959       16.0922309330       30.5517020030
  C        -1.8187976661       15.7797354872       32.7333117572
  C        -1.8516463671       13.4917374749       33.8131899351
  H        -1.5896759547       11.8936743486       32.5037737699
  H         6.8088877803       12.2745933330       18.2155010034
  H         6.9250298467       13.9121502674       17.6676130615
  H         7.7554351652       13.2325407452       19.1251917912
  S         4.1029486460        9.4396120993       14.1806479913
  C         3.7947402833        6.9367750582       13.3344554999
  H         4.1113352882       10.8340462590       29.9093722464
  H         3.3435861285       10.1560644136       31.3920540772
  C         5.0827006584        9.0817129008       30.5381332265
  H        -5.0505923851       10.4320800866       25.7498181792
  H        -5.7348945838       10.5361895096       27.4855600575
  C        -6.6281841268        9.0800953982       26.2017160615
  S        -1.7155242435       17.6262952956       31.1527635355
  N        -1.9383621697       17.1795302303       32.6721649226
  C        -1.9308714989       15.0159165287       33.9492988566
  H        -1.9743781955       12.8929604300       34.6886780547
  C         4.3051591065        8.9825070409       12.4909420720
  N         4.2263878397        7.6456730760       12.2608180352
  O         3.5586100630        5.7538804436       13.3832083382
  H         5.8262319485        9.7043025508       31.0315540309
  H         5.4105348615        8.8418146610       29.6347447866
  C         4.8871189308        7.7297623987       31.2119123091
  H        -6.3114337833        8.1954109420       25.6044767461
  H        -7.2172801904        8.7854830123       27.0944448696
  C        -7.4100603287        9.9559973263       25.2786382018
  C        -2.1655931703       15.6974545039       35.1975635157
  S         4.7271056233        9.9743994057       11.1356715654
  C         4.0890585665        6.9979752263       10.9900986772
  H         4.8958690780        7.9244626911       32.3025813962
  H         3.9855820834        7.3077520169       30.8895917318
  C         6.0495535107        6.7956681753       30.8253309434
  H        -6.9228625771        9.8126141626       24.3398455495
  H        -7.4264714607       10.9647006267       25.5314135018
  C        -8.8434176949        9.4657840473       25.1435630147
  H        -1.9566890128       16.7416461440       35.2036200233
  C        -2.6671440637       15.3739637648       36.4207518499
  H         4.7663804336        7.4514424802       10.2463734887
  H         4.3947495150        5.9585109832       10.9986976614
  C         2.6155494767        7.1327453088       10.5660533168
  H         7.0035851537        7.2179089111       31.1198750720
  H         5.9378270139        6.5778884675       29.7869547698
  C         6.0474055479        5.4503819807       31.4880528420
  H        -9.3300701994       10.0037768869       24.3380016377
  H        -8.8289437583        8.4351034828       24.8008817640
  C        -9.6694856660        9.4187020558       26.4433218949
  S        -3.2966104488       13.8505994293       36.8417590400
  C        -2.8439689033       16.4278585512       37.5086645649
  H         2.0301565722        6.4403770164       11.1836884881
  H         2.2349173799        8.1357762215       10.8216793690
  H         2.3976307035        6.9726721654        9.4777128653
  H         5.1025865806        4.9315940589       31.2939170950
  H         6.2935731882        5.5126363370       32.5371211375
  H         6.8629564107        4.9261947302       30.9998798004
  H       -10.5700860226        8.8670551760       26.1116306069
  H        -9.9745215925       10.3643742168       26.9449601029
  H        -9.1380786122        8.8110986513       27.1345750829
  C        -3.7199406846       14.5704994328       38.3954391458
  N        -3.4856529349       15.8816854280       38.5514979717
  O        -2.3772417809       17.5676436795       37.3610274177
  S        -4.4568529178       13.7841551242       39.7924037714
  C        -3.6104219534       16.6173139312       39.7943833676
  H        -3.8087418383       17.6226377177       39.4480873681
  H        -4.5188642202       16.3514622804       40.3241176608
  C        -2.3704930950       16.5775881705       40.6787643070
  H        -2.2307423923       15.6570969228       41.2862192703
  H        -1.5230321381       16.5813777005       40.0666936672
  H        -2.2783226206       17.4118497490       41.3613582090
