352
i=
  H         4.3574847555        1.5316265203       12.9370609023
  C         3.9485374596        2.5556088261       13.0707692618
  H         4.7940512558        3.1911737187       13.3476284906
  C         3.1557128803        3.0890696057       11.8871163493
  C         3.0286728509        2.6400286961       14.3888379929
  C         3.9760944503        3.1308999495       10.6327858468
  H         3.0784905319        4.1779008798       12.1145231750
  H         2.2991892123        2.5647086962       11.5898063395
  H         2.3206469366        1.6939218605       14.5838377419
  H         2.2961153929        3.4883009450       14.2741123805
  H         3.6933804796        2.8533763752       15.2199949098
  C         4.4504280888        1.7449298745       10.1412947982
  H         3.4746496331        3.5278893357        9.8015726461
  H         4.8469624668        3.7208205046       10.8448304506
  C         4.8466424828        1.7523323537        8.6652338069
  H         3.6234433857        1.0748421303       10.2048171064
  H         5.2469409102        1.2866496579       10.7460797360
  C         6.1647341476        2.4565606664        8.4720501785
  H         3.9773183566        2.2838388216        8.1839722087
  H         4.9386427901        0.6496448291        8.3591758836
  C         7.3499981153        1.6672888163        8.8007287901
  H         6.1008912148        2.6302780247        7.4421829437
  H         6.1370777541        3.6227143304        8.7533212701
  C         8.6680873118        2.3965798514        8.9067970859
  H         7.3607966606        1.0631666623        7.9270755569
  H         7.1904721993        1.1605713195        9.7305655887
  C         8.5348393882        3.6910840243        9.7134589926
  C         9.0541392093        3.2123414136        7.6594751329
  C         9.9385241256        1.6428844049        9.4561176558
  C         8.7111850385        4.8547154949        8.9686516576
  C         8.0591656546        4.0126480121       11.0089771271
  C         9.0879521720        4.5151370838        7.6523715482
  C         9.7021686484        2.6705388726        6.4951638242
  H         9.7180380147        1.0815681651       10.4287323738
  H        10.1847864287        0.9877853740        8.7060192168
  C        11.2356423275        2.6023921832        9.8114077450
  S         8.5818283915        6.3788524577        9.8173073762
  C         8.1334153047        5.3734174275       11.1704652368
  H         7.9155758976        3.1829687705       11.7241225804
  C         9.4954639481        5.1832249803        6.5237838382
  H         9.7160319567        1.6123165597        6.4995898191
  C         9.9933455448        3.3409469527        5.3422405551
  H        10.9680341708        3.5577011708       10.1903748497
  H        11.8477475392        2.7617755737        8.9323836798
  C        12.2393397383        2.0804442727       10.8031085108
  C         7.8736368919        6.0999043037       12.5289643454
  C        10.0356681927        4.6608210098        5.3165692401
  H         9.4107347084        6.2651851859        6.6261973441
  C        10.4899509785        2.9901500250        4.1293749521
  H        13.1815972478        2.6956875453       10.6984047260
  H        12.4857942759        1.1187323362       10.3825377369
  C        11.6888271453        2.0536998379       12.1047477416
  C         7.8921353941        7.4875255445       12.7757032375
  C         7.2375418938        5.2958200090       13.7042776991
  C        10.5568239899        5.4235150832        4.1434330147
  C        10.8236434055        4.1345914463        3.3887129688
  S        10.8357585269        1.4709164116        3.4380368478
  H        10.9274883692        2.9152150162       12.2786127683
  H        11.2259721634        1.1381084362       12.3178083666
  C        12.7740510767        2.0440222539       13.2735094832
  N         8.2951404764        8.4519265532       11.8325881380
  C         7.5687045706        8.0977401323       13.9834353351
  C         7.0160698695        5.9623403140       14.9478514724
  H         7.0017210831        4.2666867069       13.6038981471
  C        11.9348119604        6.2081897929        4.3572922374
  C         9.3851699820        6.2922173112        3.4501990785
  C        11.2928206778        3.7349905694        2.1475005420
  C        11.3103862440        2.3472925006        2.0389191361
  H        13.5467729118        2.7430885547       13.0800506460
  H        13.3911314341        1.1127447200       13.4287785998
  C        12.2779486509        2.4805263830       14.6616361422
  S         8.1156725357        9.9820097514       12.4817695817
  N         7.6137270194        9.4948160754       13.9697022651
  C         7.2210974411        7.3970652374       15.1594844097
  H         6.7099928066        5.3590835850       15.7261392166
  H        11.7485172581        6.9835156839        5.0893489605
  H        12.1056135796        6.5778916952        3.3518597369
  C        13.1451289312        5.2778264404        4.8552001819
  H         8.9612941707        6.9206666673        4.2675113920
  H         9.9067352183        6.8085643730        2.6908500023
  C         8.3403069418        5.3486730689        2.7264114778
  H        11.5463369974        4.4641083724        1.5180959983
  C        11.5331721778        1.6934822135        0.7352362725
  H        12.1171776478        3.5642611916       14.6620761035
  H        11.2707638423        2.0867226390       14.8648058220
  C        13.3007182182        1.9707858943       15.7595911471
  C         7.0394817914        8.0889192486       16.3768654375
  H        12.8616419174        4.7719907220        5.8049197819
  H        13.3309724511        4.4843454440        4.0467834961
  C        14.4225880630        5.8988652972        5.1746761140
  H         7.9874339624        4.4886653022        3.4199448525
  H         8.7524330583        4.9598649953        1.8573407056
  C         7.3330119980        6.2826206715        2.0611132404
  C        11.5420291532        0.2572059511        0.5610510316
  C        11.6600085636        2.4552203981       -0.4711040052
  H        14.2139081996        2.4885185294       15.6224519941
  H        13.5172244100        0.9259584964       15.6497400895
  C        12.9363846023        2.4131834730       17.1952962688
  H         7.1353035232        9.1386964433       16.2453770398
  C         6.7219704443        7.7095770284       17.6646397502
  H        14.2342370670        6.8929453602        5.4752396704
  H        14.9478923131        6.0060528829        4.2135469131
  C        15.2890411984        5.2637095776        6.2049785445
  H         7.1290717316        7.0943801268        2.6638109902
  H         7.5844415331        6.6585892704        1.0962850080
  C         6.0341680228        5.4689131654        1.8796995623
  N        11.2632278055       -0.6400533438        1.6122390920
  C        11.8117285002       -0.3385500500       -0.6463403121
  C        11.9791867656        1.8376485251       -1.6959146360
  H        11.9594396018        3.4552436557       -0.4270801729
  H        12.1740174574        1.8912141270       17.6343663462
  H        12.6030190499        3.3865988303       17.0217369430
  H        13.7503420475        2.5503424800       17.9845288125
  S         6.6143898725        6.1449836633       18.3275579463
  C         6.6024255231        8.7424284203       18.6798697957
  H        14.9733237357        5.3592386899        7.2578332962
  H        15.4183098582        4.2289626944        5.9694431238
  C        16.8366658191        5.7275058098        6.0214506035
  H         5.5550055320        4.9653737427        2.7619765780
  H         6.1109504437        4.7637220943        1.0878438014
  C         4.9730358442        6.2949732332        1.3148636998
  S        11.6032867066       -2.1624845387        1.0024152214
  N        11.8635935965       -1.6915631600       -0.5460374204
  C        12.0069735371        0.3542394017       -1.8237301573
  H        12.2443537182        2.4640368306       -2.5550927817
  C         6.3852905382        6.8910203584       19.9233507789
  N         6.3046338257        8.2141821733       19.8876099653
  O         6.7505479297        9.9598503185       18.4536642102
  H        17.3287972784        5.7226135105        4.9748300793
  H        16.8714155208        6.7961420413        6.2390950250
  C        17.7879906975        5.0129163519        6.9729718836
  H         5.2956611859        6.9966539160        0.5014778071
  H         4.2682433173        5.6015432026        0.6558665613
  C         4.1282436140        6.9335408938        2.3677932565
  C        12.3242496093       -0.3691421601       -3.0125987380
  S         5.7633660112        6.0842492526       21.3475168892
  C         6.3557468795        9.1380428219       21.1412303566
  H        17.4349932157        5.0964705178        8.0097250318
  H        17.7520589685        3.9820034799        6.7429367344
  C        19.1966357916        5.5421147732        6.7241883982
  H         4.7801258934        7.3127050558        3.1839868623
  H         3.3409678227        6.2732084590        2.7403705453
  C         3.3717471363        8.1576276643        1.6983621103
  H        12.1328911738       -1.3785738638       -3.1250640945
  C        12.8817859391        0.0057928577       -4.2185208748
  H         5.6719299840        8.8017484635       21.8895668354
  H         5.7767736550       10.0420089433       20.8460700699
  C         7.8626746196        9.4861787646       21.5918719645
  H        19.7671503589        5.4453971834        7.7537996617
  H        19.1218976511        6.6325879091        6.6824213527
  C        20.0087002413        5.1500916133        5.5209456998
  H         2.9675789092        7.7591608579        0.8166459578
  H         2.4779359028        8.3444254251        2.2473040984
  C         4.2902757898        9.4299394905        1.5021351379
  S        13.3514563756        1.5613744473       -4.7947709688
  C        13.2987136979       -0.9903085692       -5.2336834897
  H         8.3931624876       10.2373856213       21.0579038486
  H         8.5368884610        8.6231235315       21.4862160339
  H         7.8398829495        9.9649513843       22.5927209139
  H        19.7749920842        5.4274510972        4.5305510677
  H        21.0818784002        5.4926602494        5.6073402921
  H        20.2134941194        4.0678605111        5.6706271513
  H         4.4039247579        9.9435295306        2.4576454974
  H         5.2605211210        9.2888903498        1.1103169164
  H         3.6918196296       10.1478536529        0.8688803515
  C        14.0364910815        0.8539302395       -6.2379572208
  N        13.9503729857       -0.4545678099       -6.2877440512
  O        13.0685275687       -2.1786091010       -5.0691068405
  S        14.5567255719        1.9131617643       -7.6467986922
  C        14.1218733827       -1.3257398390       -7.4314501514
  H        14.5232431955       -2.3424510728       -7.2975583675
  H        14.7843150805       -0.7712059333       -7.9900869298
  C        12.8903765586       -1.3449794260       -8.3974095018
  H        12.0957866750       -0.5200981196       -8.2242587534
  H        12.3908753618       -2.2887082168       -8.2273638475
  H        13.0313899859       -1.2714628799       -9.4721954171
  H        -3.6529835142       15.0882669877       16.7550623461
  C        -3.2679946647       14.1272203601       16.4408541873
  H        -4.0652499407       13.3956383691       16.5103680794
  C        -2.0213019541       13.8287644049       17.4067653005
  C        -2.8850254481       14.2046335026       14.9312523956
  C        -2.3192514750       14.1735760197       18.8279815540
  H        -1.7850282321       12.7288807131       17.3031193838
  H        -1.1909665348       14.4710239355       17.0758146510
  H        -2.5480747703       13.2671440067       14.7733959956
  H        -3.6606081000       14.5014000408       14.3780940850
  H        -2.0187040929       14.8552169981       14.8440376157
  C        -1.5451159851       13.2787027741       19.7971304886
  H        -3.4228300263       13.9444996581       19.0612155572
  H        -2.0946259261       15.2128717673       19.0384922317
  C        -1.9467975886       13.4212718801       21.2798194767
  H        -1.5779095555       12.2052558511       19.3954633846
  H        -0.5149620274       13.5330843547       19.6091503871
  C        -0.8392222855       12.7197171259       22.1665835841
  H        -2.8673766269       12.9558262129       21.3555658957
  H        -2.1158283677       14.4650402087       21.3437529784
  C         0.1668504631       13.7193576764       22.6579553751
  H        -1.5670343199       12.2695116800       22.9044489072
  H        -0.3103835959       12.0350835088       21.5383520530
  C         1.3715999673       13.0908348016       23.3642934521
  H         0.4925576877       14.2600307697       21.7885106737
  H        -0.2979058067       14.4972135852       23.2915225715
  C         1.8303651490       11.7545233249       22.6822184564
  C         0.9359974716       12.4070688042       24.5860571552
  C         2.5862825084       14.0954784835       23.6063848199
  C         1.6413129415       10.6610853587       23.4726491753
  C         2.3000176457       11.4624610202       21.3705361225
  C         1.0925687659       11.0660985580       24.7115797469
  C         0.2959712883       12.9608666296       25.7191025084
  H         2.7971763204       14.5823027775       22.7120527654
  H         2.2639122407       14.8676678643       24.3708769566
  C         3.8196486012       13.4192439562       24.1617235349
  S         2.0548148000        9.1768539903       22.7805269786
  C         2.3099497871       10.1060256194       21.3312188694
  H         2.4412192592       12.2013637076       20.5724733815
  C         0.6539224137       10.4245729217       25.8364422790
  H         0.1943275768       14.0071161818       25.7208336952
  C         0.0237350749       12.3058266281       26.8534267907
  H         4.1053617280       12.5771917661       23.4597086077
  H         3.6866754063       13.0714739774       25.1172664284
  C         5.0469053564       14.4462181702       24.2331972925
  C         2.6715381244        9.3929465577       20.0696219946
  C         0.0484269704       10.9741767375       26.9616141115
  H         0.8136407715        9.2850025966       25.8945055269
  C        -0.6088860787       12.6554995677       28.0104307496
  H         5.8631279302       13.9763218408       24.8472773373
  H         4.7110910541       15.3278132179       24.7498473601
  C         5.7710073933       14.5446378910       22.8514211291
  C         2.7966201828        8.0403166429       19.7953326336
  C         3.2067000549       10.2091643826       18.9753754034
  C        -0.5064939964       10.2196987201       28.2122310866
  C        -0.7147186431       11.5611484592       28.9053102782
  S        -0.8434954720       14.2071482522       28.8812709215
  H         6.3018819771       15.4237392687       22.7794762295
  H         4.9003604810       14.5615324903       22.2133368914
  C         6.6317571089       13.3743165058       22.5666595064
  N         2.5990231520        7.0189171787       20.7022429162
  C         3.0531525049        7.4856396056       18.5524831143
  C         3.5885829844        9.6187038706       17.7714015625
  H         3.4733987562       11.2424043562       19.1293961381
  C         0.5633118728        9.3519358185       29.0192316905
  C        -1.8621503564        9.5391131483       28.0819251208
  C        -1.0596562448       12.0341311570       30.2135280126
  C        -1.0640728297       13.4328765109       30.3235651182
  H         7.3391519147       13.2642339646       23.3541925195
  H         6.0182319934       12.4295879923       22.3370429185
  C         7.4787546222       13.8489833093       21.3217332818
  S         2.7047304864        5.5526675162       19.9674646239
  N         3.0455574547        6.1487775565       18.5127470764
  C         3.4143470015        8.2397362706       17.4267326570
  H         4.0345674782       10.2781620577       17.0401309507
  H         0.9347070982        8.5551892182       28.3085536340
  H         0.0265981472        8.7082218284       29.7502375170
  C         1.8038074733       10.0977482748       29.5106585530
  H        -1.6148728677        8.5943310230       27.6757903994
  H        -2.3117799101        9.2273147835       28.9971888471
  C        -2.9764981013       10.2523537449       27.2443887641
  H        -1.1456040871       11.3598190486       30.9381915517
  C        -1.5688171422       14.1832102814       31.5552435060
  H         8.5681571900       13.7056306184       21.5892164738
  H         7.2225375962       14.8849787030       21.0428865045
  C         7.2623171301       13.0134054686       20.1048112264
  C         3.6558677338        7.6138180567       16.2227406567
  H         2.1400839962       10.8231641138       28.7569401972
  H         1.5008836876       10.7129883458       30.3044177556
  C         2.8246056237        9.0792028984       29.8730974853
  H        -2.4830419469       10.6065265249       26.3358895399
  H        -3.3398708303       11.0926614717       27.7228206736
  C        -4.1001299421        9.4672920834       26.8496475084
  C        -1.8052680631       15.5527245357       31.6781315164
  C        -1.7406093442       13.3338853963       32.7855385113
  H         8.1316851199       12.3462339489       20.0596774011
  H         6.3416818862       12.4819110696       20.0424403688
  C         7.4653184520       13.8527822036       18.7892399988
  H         3.1815365234        6.6519659739       16.1546655856
  C         4.0127259562        7.9749000636       14.9607277612
  H         3.1784235986        8.5623626257       28.9576412945
  H         2.5282309191        8.5150537713       30.7352980094
  C         4.1562318596        9.7332431337       30.2620575989
  H        -3.8450805085        8.8559949764       26.0510859732
  H        -4.6471007137        9.0156867202       27.7881726826
  C        -5.1553393383       10.2990014628       26.2237425341
  N        -1.6039651809       16.4523116453       30.6889541769
  C        -2.1055304087       16.1162890022       32.8710286034
  C        -2.0463736732       13.9617181172       33.9970423795
  H        -1.6922004665       12.2953096238       32.8389524498
  H         6.6875310888       14.7375980321       18.6985218143
  H         8.4608402317       14.2622265962       18.8851083744
  H         7.4986830861       13.1065016806       18.0660815065
  S         4.1595157075        9.5999755225       14.5287083406
  C         3.9663633704        7.0474913200       13.8146921590
  H         4.2415347691       10.6142696201       29.5763506041
  H         4.1699135945       10.0975331626       31.2968366509
  C         5.3690327613        8.9992082757       29.8132905212
  H        -4.7951823352       10.9558618626       25.3683167632
  H        -5.5916565704       11.0487401814       26.9454887510
  C        -6.5034014942        9.6056509359       25.8845504899
  S        -1.7434217541       17.9902359261       31.2246080209
  N        -2.2840871539       17.5181540889       32.7260471709
  C        -2.1204306025       15.4370102866       34.0984154738
  H        -1.9881639036       13.2392800955       34.8958361977
  C         4.4211978743        9.0264466554       12.9146440470
  N         4.3504480809        7.6722202279       12.7429475978
  O         3.8162622537        5.8230385936       13.9886064936
  H         6.2270858850        9.6695780553       29.7605472079
  H         5.3095895385        8.5356101200       28.8559341951
  C         5.6583965474        7.9994836175       30.9692249248
  H        -6.3628760427        8.9019948233       25.1628167443
  H        -6.9806766444        9.1004672394       26.7756094378
  C        -7.4614090696       10.6464014227       25.3149045179
  C        -2.3434949550       16.1812300841       35.2795169021
  S         4.5678936367       10.0338183382       11.5083988487
  C         4.2896343322        6.9782810429       11.3242957803
  H         6.5037476510        8.2242886684       31.5342234076
  H         4.8898856125        7.9036789700       31.6658662278
  C         5.8397729459        6.5466118322       30.4372284363
  H        -6.9516834337       11.1415355834       24.5069836966
  H        -7.5187896040       11.3215613101       26.1199747219
  C        -8.7862399752       10.1055061374       25.1872333151
  H        -2.2795237048       17.3091677006       35.2196671338
  C        -2.9082777366       15.7981932053       36.5003296995
  H         4.8521189391        7.5613694425       10.6105538939
  H         4.6019393387        5.9886829563       11.3357353602
  C         2.9539803739        6.8572303788       10.7334535963
  H         6.6020366657        6.3977565624       29.6919305034
  H         4.8326707382        6.3070788870       29.9413521414
  C         6.0597115682        5.5055681277       31.4385294248
  H        -9.3477862872       10.7009096704       24.3767148143
  H        -8.7199663302        9.1275346890       24.7723513614
  C        -9.5448041230       10.0897212920       26.4253368483
  S        -3.5214857074       14.2057941484       36.9275691196
  C        -3.1764609818       16.8658746850       37.5016992569
  H         2.4895949086        5.9750143929       11.0361720316
  H         2.4333369623        7.6384908589       11.1304547372
  H         2.8950651216        6.9128603212        9.6192068124
  H         5.6661181557        4.5558821197       31.0654631082
  H         5.4619300399        5.6113743871       32.3449696358
  H         7.0482327072        5.4082507718       31.9061948925
  H       -10.5910384502        9.8008952494       26.3279609568
  H        -9.4715528210       11.0536713259       27.0139610959
  H        -9.0997831992        9.5587070777       27.2940889045
  C        -4.1967923280       15.0247726844       38.2970539716
  N        -3.8784227571       16.2787332198       38.4620235096
  O        -2.9404844663       18.0977165789       37.2973385982
  S        -4.9050434539       14.1074275976       39.6096954933
  C        -4.1023250678       17.0400451621       39.6741770408
  H        -4.3990719787       18.0313615052       39.2762151574
  H        -5.0774561789       16.7145611068       40.1503041827
  C        -2.9498651884       16.9239715934       40.6606359136
  H        -2.9238244582       17.7323289116       41.3597428582
  H        -3.2835975303       16.1189644639       41.2265911382
  H        -1.8993809995       17.0231496768       40.2247793187
