352
i=
  H         2.2460227076        1.9892183166       12.0193650363
  C         3.1011943245        2.7092049712       11.9517183504
  H         3.9518718539        2.0316019616       11.7793331191
  C         2.9944891563        3.7506738041       10.7966421181
  C         3.2978728693        3.2466601939       13.3525486274
  C         4.2989417250        3.7621732806        9.8548497559
  H         2.5979231688        4.6142005755       11.2484872084
  H         2.1769139282        3.4351117321       10.2156970960
  H         3.9979925524        2.6445170685       13.9005741416
  H         2.3938685060        3.3687469952       13.9714625247
  H         3.7073940579        4.2049669574       13.2363272020
  C         4.7171630679        2.3868341804        9.3336027175
  H         4.3656390134        4.4818162724        9.0486192072
  H         5.1224775913        4.1061173093       10.5553245543
  C         5.4637622439        2.3965727156        7.9814635766
  H         3.8358344635        1.7972373827        9.1693162741
  H         5.3116621487        1.7910826914       10.0401214929
  C         6.8783304887        3.0257611780        8.1939758487
  H         4.9638514631        2.6765551133        7.1185601816
  H         5.5528038467        1.3436036899        7.8321988591
  C         8.0572990744        2.2670729652        8.8261185491
  H         7.1902110059        3.4315002634        7.2621418232
  H         6.7827954043        3.8707862483        8.8621544841
  C         9.3408055640        3.0456274046        9.0930211308
  H         8.0761953780        1.4371764528        8.0787600260
  H         7.7650267142        1.8121158095        9.7498568725
  C         9.0991446872        4.3617352786        9.8104373833
  C         9.8163353636        3.7032751442        7.8091261446
  C        10.4401618036        2.2155021494        9.8800575456
  C         9.3959600055        5.4559898479        9.0211852537
  C         8.6280294939        4.7191326619       11.0969969356
  C         9.7791899143        5.0695928192        7.7660158248
  C        10.2927128204        3.1205331809        6.6412372651
  H        10.0618886528        1.5850467313       10.6926359893
  H        11.0075080901        1.6044252166        9.1251346536
  C        11.4938768396        3.1879274142       10.4718026204
  S         9.1422982867        6.9193180559        9.8102997378
  C         8.5277912607        6.0799125255       11.2236865447
  H         8.3445674570        3.9222052154       11.7391613241
  C        10.2126897382        5.7354399620        6.6896698436
  H        10.3101138602        2.0443926840        6.5285589190
  C        10.6530952401        3.7981150415        5.4933508041
  H        11.0907021254        3.9116167749       11.1258783920
  H        11.9549257367        3.7837422515        9.6303636772
  C        12.6116188035        2.4049730043       11.1857849528
  C         7.9287506560        6.7710238129       12.3720291204
  C        10.6576081046        5.1225446564        5.4428195405
  H        10.2692668452        6.8343325881        6.7002621466
  C        11.0005979854        3.4725332911        4.2044357250
  H        13.3982744295        2.0865317894       10.5178262368
  H        12.2174222245        1.5175843121       11.5510057061
  C        13.2467343870        3.2165596501       12.2969232279
  C         8.0061549596        8.1555619471       12.6154375639
  C         7.4318051800        5.9322078942       13.4826826097
  C        11.1301737428        5.9196292824        4.2565240093
  C        11.3625836938        4.5674636801        3.4740254080
  S        11.3601754083        1.9956181539        3.5475297052
  H        14.1052225156        3.8027765114       11.8588143076
  H        12.5110154099        3.9720040731       12.5345084996
  C        13.5329695006        2.4309427887       13.5791366417
  N         8.3942372947        9.1133986020       11.7024366137
  C         7.7183688361        8.7131927480       13.8156555685
  C         7.0499256179        6.5391201331       14.6593700321
  H         7.2104707623        4.9061961774       13.3349967857
  C        12.5212429791        6.6686917332        4.3915670351
  C        10.0866485818        6.8146155947        3.5380809709
  C        11.8468886327        4.1986014121        2.2208679507
  C        11.8418767302        2.8076949328        2.0937053478
  H        14.3083671507        3.0042094172       14.1460836946
  H        14.0073974083        1.5217174696       13.2104011894
  C        12.3479611774        2.2146080647       14.5714124202
  S         8.4947419578       10.5785609972       12.3458935038
  N         7.9601399609       10.1325596802       13.7797754238
  C         7.2959570698        7.9628579697       14.9696990762
  H         6.5709470559        5.9675771309       15.4285643165
  H        12.4316991142        7.3653093507        5.1497169349
  H        12.6566839434        7.2779271465        3.5199755332
  C        13.7005304340        5.7133782175        4.6659460416
  H         9.7139003914        7.7030753714        4.1102068138
  H        10.5784023852        7.1885333330        2.6122827889
  C         8.8165096614        6.0954082328        2.9468279393
  H        12.1681754845        4.8832980272        1.4133158360
  C        12.0131910603        2.0780182603        0.7476961698
  H        11.4064650202        2.6113658776       14.1480490499
  H        12.1814034789        1.0931764405       14.7484110657
  C        12.5610366692        2.9921884229       15.9381860278
  C         6.9481187913        8.6517839758       16.0976931448
  H        13.5074426674        5.1587332934        5.5508772641
  H        13.9027792575        4.9874657880        3.9134037546
  C        14.9908362019        6.5520071633        4.8298300395
  H         8.2325971747        5.7011758931        3.7416711149
  H         9.0601423429        5.2466523439        2.3049483347
  C         8.0037377177        7.1245689947        2.1572847998
  C        11.9851005875        0.7127430934        0.5333790357
  C        12.3393511994        2.9801532425       -0.4870398764
  H        11.6122185886        2.9671453949       16.4931852237
  H        12.8536172217        4.0279737773       15.7761085138
  C        13.4912058159        2.2383122592       16.8583511379
  H         7.2144788925        9.6721398987       16.0367586873
  C         6.6350740981        8.2741148467       17.3495994913
  H        14.8194586069        7.3532368228        5.6365933456
  H        15.1281615415        7.2164332570        4.0397276966
  C        16.2501563913        5.7564747359        4.9976220618
  H         7.9703382983        8.0593105374        2.7801609655
  H         8.6403841722        7.3609360315        1.3384917610
  C         6.5760734030        6.7394803272        1.7500144300
  N        11.6484460026       -0.2225829519        1.4858865238
  C        12.1558474936        0.1299070164       -0.7024156186
  C        12.4578389381        2.3616422462       -1.7118736138
  H        12.4077562585        4.0848365619       -0.4782553751
  H        14.3919660231        1.7280940041       16.3319916952
  H        13.0028903369        1.4764009280       17.4310352933
  H        14.1315091168        2.8492727697       17.4308488918
  S         6.4418304567        6.7189148259       17.9921845310
  C         6.4237779148        9.3320331039       18.3606007832
  H        15.9893348276        4.6941320540        5.1888418973
  H        16.8377366083        5.7266535040        4.0442107099
  C        17.1997714291        6.3538071420        5.9974346418
  H         6.0495929236        6.1667189524        2.4904356421
  H         6.6941686652        5.9775772677        1.0064663216
  C         5.6380575971        7.8615634991        1.2250482755
  S        11.7893038392       -1.7359049603        0.8238782563
  N        12.1275686409       -1.2841860381       -0.6900205560
  C        12.4336513728        0.8614322708       -1.8880678639
  H        12.7273012225        2.9789703442       -2.5479537854
  C         6.1022672537        7.4310011679       19.6123982930
  N         6.1674808988        8.7836226365       19.5664678806
  O         6.4592430857       10.5149579662       18.0429795474
  H        17.8255748497        7.0360364844        5.4404776544
  H        16.5975099977        6.9926671437        6.6519317014
  C        18.1129150781        5.4101245462        6.7156231028
  H         6.2668798147        8.6820588681        0.8242300623
  H         4.8916691560        7.6021771854        0.4682897030
  C         4.9316650237        8.5058170721        2.4283956979
  C        12.8289564868        0.1763656067       -3.0699700977
  S         5.7197050130        6.6071725376       21.0796105588
  C         6.0084852261        9.6257106549       20.7356424920
  H        17.6011833923        4.8399416329        7.5173628215
  H        18.6174661349        4.7048198866        6.0519082712
  C        19.2967018812        6.1241302894        7.2959381246
  H         5.6424814097        9.0872991624        3.0437886798
  H         4.4295471257        7.7411721947        2.9872911192
  C         3.9338847149        9.4673241169        1.8237365588
  H        12.6314461725       -0.8546114155       -3.1145742178
  C        13.4382048018        0.5162820800       -4.3028677238
  H         5.1701816603        9.3628818709       21.2985603793
  H         5.7892590696       10.6625822066       20.4210952148
  C         7.4089876872        9.6038090642       21.4430271898
  H        19.5125240318        5.5854269616        8.2101804924
  H        18.9274281830        7.1224986289        7.5998957505
  C        20.5099115256        6.2035328301        6.3123550161
  H         3.0540117237        9.0496362078        1.4058242730
  H         3.5948645387       10.0431249040        2.6221423518
  C         4.5124422208       10.5357223712        0.8578053764
  S        13.9708113722        2.1181688826       -4.6354203143
  C        13.4228393099       -0.4987052915       -5.3457879427
  H         7.3867943553       10.1595483724       22.4119110596
  H         8.1220057518       10.0854360491       20.7651334389
  H         7.7237633249        8.5794877241       21.6419686431
  H        20.8319114611        5.1650926092        6.1490601293
  H        20.1513249533        6.7995527785        5.4355538797
  H        21.4387681847        6.6699262990        6.6448439463
  H         5.4821519179       10.9587647104        1.1215709163
  H         4.6681091537       10.1085903546       -0.1117150200
  H         3.7183934483       11.2837748035        0.7360630705
  C        14.2653638018        1.3882856229       -6.3154739166
  N        14.0185144252        0.0393939284       -6.3864644722
  O        13.0026780664       -1.6222143771       -5.2009152955
  S        14.8050398731        2.2293474866       -7.7823918017
  C        14.1815759635       -0.7883152719       -7.6295384703
  H        14.2637952630       -1.7958559485       -7.2800624686
  H        15.1239578848       -0.4892113145       -8.1875297971
  C        12.9354411194       -0.6444032780       -8.5642666415
  H        13.2030713448       -1.0973580206       -9.5621875378
  H        12.7482918408        0.3472364218       -8.8048544347
  H        12.0607680372       -1.2014785811       -8.1931758488
  H        -3.8916015111       14.8490958741       16.2878549332
  C        -3.2574140005       14.0089581493       15.9122689189
  H        -3.9498017786       13.2042756570       15.7981342044
  C        -2.2322211933       13.6025808571       16.9690755402
  C        -2.6303638192       14.4470209451       14.5954278146
  C        -2.7685723022       13.7454550094       18.3933476377
  H        -1.9300659715       12.5293086441       16.8185969366
  H        -1.2747625576       14.0769102245       16.9105154956
  H        -2.0297724404       15.3296439719       14.8237949980
  H        -2.1456841186       13.6547227897       14.0436549929
  H        -3.3488425434       14.8125192776       13.9277839406
  C        -1.8685481032       13.2473945014       19.4920042569
  H        -3.6845623629       13.1103474558       18.3539944078
  H        -3.0498352436       14.8078470546       18.5374492940
  C        -2.4508938642       13.4772721275       20.9405717408
  H        -1.7251972446       12.2207631381       19.2618742768
  H        -0.9798675877       13.7697244706       19.3145365637
  C        -1.4196425601       12.9784860342       21.9603673031
  H        -3.3443600029       12.8847881764       20.9919377889
  H        -2.7232153105       14.5160088925       21.0869465699
  C        -0.2143446099       13.9200555934       22.0622299003
  H        -1.9133692131       13.1845876245       22.8808956823
  H        -1.1247137571       11.8956036450       21.7985673394
  C         0.9852975671       13.2606668637       22.7643899460
  H         0.0551048200       14.2766501532       21.0427551623
  H        -0.4589457551       14.6414387836       22.7689372113
  C         1.3571806881       11.9319895424       22.0954929096
  C         0.5721501021       12.6018922138       24.0436884960
  C         2.0753263192       14.2905056237       22.9118385298
  C         1.0812145816       10.8181414149       22.9278254961
  C         1.7566117461       11.6045545382       20.8209739250
  C         0.6443713649       11.2514213698       24.1661579855
  C         0.0747869421       13.2583177168       25.2113705332
  H         2.2832279652       14.7168995339       21.9247370921
  H         1.7018511206       15.0664752100       23.4831102559
  C         3.3958403573       13.8053897131       23.5367617746
  S         1.6032757598        9.3159434241       22.1778598913
  C         1.9789940544       10.2578622398       20.7364619472
  H         1.7070861191       12.3386198057       20.0307865182
  C         0.4095144604       10.6307967624       25.3531549485
  H        -0.0389461048       14.3408536703       25.1469796849
  C        -0.0767369689       12.5863711469       26.4563046962
  H         3.6610928058       13.0414902990       22.8390206037
  H         3.1270362009       13.2122561063       24.4193607472
  C         4.4809876561       14.8410071134       23.8702109405
  C         2.6468025195        9.6401239109       19.5278720750
  C         0.0407201359       11.2084139890       26.5477951628
  H         0.4646918157        9.5250091589       25.2944825555
  C        -0.3781139439       12.9449969021       27.7575833727
  H         5.2464938563       14.4357797776       24.6229570504
  H         4.0372230573       15.6029431011       24.4884905738
  C         5.2300468402       15.2963672982       22.6017847565
  C         2.8710857176        8.2717448863       19.2571216872
  C         3.0097127808       10.6156793936       18.4508423895
  C        -0.3679811452       10.4910072815       27.7910343151
  C        -0.6136848073       11.8486899648       28.5606676190
  S        -0.6561816850       14.5011947337       28.4966221919
  H         5.8230910052       16.1864750263       22.8307735215
  H         4.4420258098       15.5957116797       21.8889911117
  C         6.0401464025       14.2135467925       21.9538878587
  N         2.5828459094        7.2419551143       20.1789023749
  C         3.1144636865        7.8055563518       17.9667098199
  C         3.3875269570       10.1573536989       17.1738163313
  H         3.1883842352       11.6433089731       18.6171617778
  C         0.7793205633        9.6193158107       28.4333119147
  C        -1.6661824401        9.7023939370       27.6237488701
  C        -0.9614449401       12.2674989353       29.8502327035
  C        -1.0170193483       13.6348819979       29.9737159201
  H         7.0422726788       14.4649438194       21.9929511241
  H         5.9830406970       13.1961705814       22.4425028037
  C         5.7171974909       14.0319072782       20.3873514200
  S         2.5605685665        5.8070910803       19.4183473487
  N         3.0873694395        6.3914576529       17.9662489717
  C         3.3553897218        8.7063279129       16.9303722629
  H         3.6238376151       10.9000757895       16.4727258391
  H         1.0912431260        8.8445548593       27.6940710488
  H         0.3979933711        8.9217102603       29.1818847347
  C         1.8946049301       10.4183945820       29.1025144031
  H        -1.4157117162        8.8093041275       26.9524342299
  H        -2.1548285780        9.3173493628       28.4455050818
  C        -2.8195274337       10.5528983713       26.9493506877
  H        -1.0707517364       11.4848681186       30.6134781737
  C        -1.1480440709       14.3735071850       31.3001867533
  H         4.9085218553       14.7065123168       20.0715779130
  H         5.1509506394       13.1025729961       20.2530727744
  C         6.8835893763       14.0858754883       19.3573118736
  C         3.6403195408        8.1978902089       15.6520246198
  H         2.2887061054       11.1253786373       28.4132859803
  H         1.6456008471       11.0854392656       29.9674425481
  C         3.1348859440        9.5038149225       29.4557416026
  H        -2.4471129312       10.9834355951       26.0176408041
  H        -3.2244998124       11.3501193536       27.5568923646
  C        -4.0483301871        9.6558932037       26.6296241752
  C        -1.2318733390       15.7938937308       31.4338785191
  C        -1.3034368618       13.6334000595       32.5580431238
  H         7.6163991690       14.9069450870       19.6217856500
  H         7.5581252391       13.2120819308       19.4299026496
  C         6.3097333307       14.2454347711       17.8866788630
  H         3.5751042319        7.0847655672       15.6351379626
  C         3.9106831404        8.8046955545       14.4490986779
  H         3.2321571942        8.8542976866       28.6355903515
  H         2.9358093108        8.8575950271       30.3054050868
  C         4.3790111563       10.2811596919       29.7055639793
  H        -3.8332355587        8.9326212381       25.8193359278
  H        -4.3679948395        8.9824158274       27.4033111777
  C        -5.1650520415       10.4565537499       25.9346973153
  N        -1.0053066403       16.7545760527       30.4214350948
  C        -1.5669970924       16.4493966793       32.6696314306
  C        -1.6011782835       14.2849777421       33.7735395434
  H        -1.3401466213       12.5549103877       32.5355215122
  H         5.2501686550       14.0333836295       17.9230280783
  H         6.5182346591       15.2439791913       17.4414324789
  H         6.7249941359       13.3841835493       17.3177712695
  S         3.9951831549       10.4942937193       14.0700846332
  C         4.0627248672        7.9060518508       13.2304940430
  H         4.4152413416       11.2428024831       29.2010742716
  H         4.3307831731       10.6154921252       30.7502177887
  C         5.6531681254        9.4662615167       29.3090371938
  H        -4.9422479037       10.5000866265       24.8671992808
  H        -5.0378434810       11.4545960809       26.3562653198
  C        -6.5552683357        9.8332073249       26.1295629121
  S        -1.2544166048       18.2172022726       31.0924548696
  N        -1.7325161481       17.8313911307       32.5678860233
  C        -1.8045074705       15.7330062101       33.8587715835
  H        -1.6377232898       13.6655656131       34.6756401778
  C         4.3855862775       10.0432276651       12.4074484205
  N         4.3200956905        8.6989610873       12.1596679973
  O         3.9838660492        6.6708564904       13.1694445727
  H         6.5317946837       10.0434409410       29.1577491343
  H         5.3928385412        8.9208861137       28.4151221754
  C         5.9662319498        8.4373579950       30.4011568805
  H        -6.4942922845        8.8111180425       25.8315286933
  H        -6.9241269618        9.8499465340       27.1326687012
  C        -7.6666037756       10.6908740710       25.4408966320
  C        -2.1954892814       16.4349804544       35.0138533495
  S         5.0934971624       11.0622911065       11.1824622850
  C         4.5962541506        7.9922247477       10.8062954365
  H         6.4009837166        8.8578838792       31.3340100214
  H         5.0637595573        7.8940727368       30.7164811496
  C         6.9468277595        7.3882811728       29.6686850822
  H        -7.3479639519       11.0724625080       24.4866681352
  H        -7.8298618506       11.6238730804       25.9436266764
  C        -8.9957155837        9.9012154046       25.4597558481
  H        -2.2683055581       17.4624382075       34.8623473133
  C        -2.6120156093       16.0038924320       36.2254147224
  H         5.1749708657        8.6176744086       10.0902995673
  H         5.2674091287        7.1223696440       10.8871210312
  C         3.2745598588        7.4297308276       10.2475127051
  H         7.9318868606        7.7484805540       29.5918276444
  H         6.7237129442        7.1843818169       28.6388916205
  C         6.8846307895        6.1270612327       30.5399654702
  H        -9.4575016670       10.1636374101       24.5155518149
  H        -8.7564011845        8.8311789221       25.3966709424
  C        -9.7973202867       10.2585331000       26.6949710376
  S        -3.0699541011       14.4008821811       36.6604882971
  C        -2.8767363724       16.9865218897       37.2655835604
  H         3.4464728997        6.5438544290        9.6222499078
  H         2.5189255074        7.1740916203       10.9819419640
  H         2.7718311916        8.2344937765        9.6914013173
  H         5.8342065369        5.7473290770       30.6152228888
  H         7.1399260774        6.2575859872       31.5890972829
  H         7.5578655559        5.2392195103       30.2785414104
  H        -9.2153750518       10.4281030502       27.6333828457
  H       -10.4508538383        9.4137431199       26.9563696304
  H       -10.3730160918       11.0856967363       26.4171237646
  C        -3.4710630628       15.0093724607       38.2218973861
  N        -3.4405992815       16.3933590507       38.3016047777
  O        -2.6368744375       18.1750229513       37.1970769495
  S        -4.2080066179       14.0921168500       39.5198901602
  C        -3.9258886566       17.0728030959       39.5025635293
  H        -4.5197779826       17.9607317301       39.2638453571
  H        -4.5399044577       16.4513116620       40.1364235835
  C        -2.7835508790       17.5571920555       40.4117327062
  H        -2.4041913082       16.7104914810       40.9809097074
  H        -1.9574810742       18.0546581113       39.8819128612
  H        -3.1522694430       18.2339586375       41.1890999916
