352
i=
  H         3.8050897939        3.8015772889       12.8163719957
  C         2.9544822236        3.2074198036       12.5515988100
  H         2.1897648199        3.9481351863       12.4213875813
  C         3.3291681912        2.2284824079       11.4620725397
  C         2.5349402274        2.5594992863       13.9067788101
  C         4.2688651946        2.7576713147       10.4520482204
  H         2.3833594376        2.0219063922       10.9752631303
  H         3.7255777582        1.3836257095       12.0324025317
  H         2.5598526644        3.3452824988       14.7060123143
  H         3.2734235348        1.7540523340       14.1296403610
  H         1.4882137888        2.2686838482       13.8476982874
  C         4.8738023836        1.5488325288        9.6132680080
  H         3.8268152567        3.5334685115        9.8059237742
  H         5.0094562859        3.3070566672       10.9556623615
  C         5.6256852246        2.0949438580        8.3985363227
  H         4.0528361185        1.0521193082        9.1478707509
  H         5.4470885179        0.8995127826       10.1992692843
  C         6.9077612086        2.9396636168        8.5852115796
  H         4.9756120028        2.6020553359        7.7160716442
  H         5.9886237281        1.2475134011        7.8567584839
  C         8.1960659766        2.1006758754        8.9240425019
  H         6.9958477337        3.5867745167        7.7081454740
  H         6.7751127072        3.4958715375        9.4837321162
  C         9.4050967851        2.9948112216        9.1608133124
  H         8.3929180031        1.2537727927        8.2439685838
  H         8.0619331006        1.6825721624        9.9370963820
  C         9.0679559726        4.3319241161        9.8145532461
  C         9.9512367392        3.6660386107        7.9977587324
  C        10.5995805967        2.2758967018        9.9451033275
  C         9.3878069692        5.4408147133        9.0366325714
  C         8.5628735361        4.7895102952       11.1194295200
  C         9.9772691219        5.0102614160        7.8956408863
  C        10.4171002963        3.0304325026        6.8258145312
  H        10.1778651799        2.0155496801       10.9046978334
  H        10.8525514317        1.3283978093        9.5560464836
  C        11.8142360107        3.1801602936       10.2650453399
  S         8.8471559892        6.8818733161        9.7608615182
  C         8.4636681085        6.1400867628       11.1953214068
  H         8.4675919297        4.0844900726       11.9108107013
  C        10.5093518096        5.6457626371        6.7954154924
  H        10.4336418972        1.9294198568        6.8515936270
  C        10.8714226236        3.6623162796        5.6891970023
  H        11.6812581144        4.1755157692       10.4455081583
  H        12.3545678638        3.2222782972        9.3264652735
  C        12.6666446812        2.5429634385       11.3964750244
  C         7.9177658926        6.8711139174       12.4281532574
  C        10.9776728570        5.0201055753        5.6236262797
  H        10.4390733339        6.7199095247        6.7588016542
  C        11.2719565472        3.3109345598        4.4204029496
  H        13.6796248572        2.8734689159       11.1612945177
  H        12.6266439855        1.4474752010       11.4667826455
  C        12.4562935628        3.0640333270       12.8404801949
  C         7.9848563870        8.2690868647       12.6937793121
  C         7.6160807282        6.0305676608       13.6774851560
  C        11.4291924293        5.8073224574        4.3966425365
  C        11.6638210505        4.4342903944        3.6892065201
  S        11.4616356279        1.7741021562        3.6734402493
  H        13.1562138578        3.9109011994       12.9384692977
  H        11.3815474750        3.3704663741       12.9525718413
  C        12.8031510754        2.0456643063       13.8776069207
  N         8.4285025830        9.2061008012       11.7279666370
  C         7.8625351621        8.7936162347       13.9614079211
  C         7.5127291081        6.5697079330       14.9413483691
  H         7.7141608627        4.9509811331       13.6539869407
  C        12.8660569929        6.3957693426        4.4684586695
  C        10.3718807053        6.6597824946        3.7299904770
  C        12.0863568914        3.9907918839        2.3980699102
  C        12.0248360642        2.6018316202        2.2995986329
  H        13.7560396956        1.5435780281       13.5495815474
  H        12.0960892926        1.3062958697       13.9690681324
  C        12.9623703635        2.5751614388       15.2507662630
  S         8.3779937841       10.6849540520       12.4613137694
  N         7.8790550182       10.2329530099       13.8988465887
  C         7.5840386158        8.0337683151       15.1412528610
  H         7.3369329309        5.9001723556       15.7331527860
  H        12.5944109188        7.3511378903        4.8448493451
  H        13.2883876763        6.5256554075        3.4294364267
  C        13.8174720862        5.7007420958        5.4430185354
  H        10.2986424279        7.5294157089        4.4053424453
  H        10.6950102501        6.9918057691        2.7333418464
  C         9.0678945011        5.9484547687        3.5572006214
  H        12.3183190048        4.7970363366        1.7093496678
  C        12.2603261748        1.8481354855        1.0037188028
  H        14.0185764941        2.9476050129       15.2497963439
  H        12.2653519076        3.4485777809       15.3461004543
  C        12.8648605123        1.5077957631       16.3020079259
  C         7.4994186339        8.7029776657       16.4310596907
  H        13.3494644083        5.8021314773        6.4048109566
  H        13.8754006157        4.6164663787        5.1615495165
  C        15.2174512748        6.1415838781        5.3212564900
  H         8.5678715997        5.4832660360        4.3814058301
  H         9.2053302319        5.1514960424        2.7175778999
  C         8.1030882508        7.0438434640        2.9693540239
  C        12.2132778511        0.4253110530        0.8269007553
  C        12.4387798538        2.5823288709       -0.2410352720
  H        13.7897350167        0.8496302755       16.2434600412
  H        12.0509794486        0.8641000851       16.1348400481
  C        12.9588687460        2.0202854446       17.7144448357
  H         7.7528131460        9.7739346739       16.5676177002
  C         7.0377846709        8.3011394127       17.6689358194
  H        15.3453305744        7.2185910001        5.3457765285
  H        15.5543276461        5.8784828846        4.3547391251
  C        16.0864217959        5.5103556010        6.4238457978
  H         7.7092994171        7.5731618010        3.7804670254
  H         8.5997871388        7.7286487429        2.3212427526
  C         7.0428550429        6.3334085834        2.1238847888
  N        11.9923522378       -0.4747129084        1.8618730374
  C        12.4532452575       -0.2109987369       -0.3945659244
  C        12.7865773996        1.9982084174       -1.4435151236
  H        12.3495741725        3.6684889233       -0.2698970660
  H        13.2440694679        3.0243274945       17.7474973256
  H        13.6717639460        1.3963510073       18.3906448807
  H        12.0165887026        1.9577432237       18.2189952450
  S         6.5847062079        6.6609090499       18.1451792471
  C         7.0475555148        9.2715703213       18.8557623194
  H        15.6085186080        5.3752183521        7.3985863200
  H        16.3660472530        4.5368420772        6.1464121937
  C        17.2985427394        6.4392394013        6.7092287358
  H         6.5491952178        5.5285211008        2.6924309332
  H         7.6730989390        5.8740230219        1.3498138215
  C         5.9610984179        7.2585527296        1.5574606610
  S        12.1603082856       -2.0187948497        1.2193566998
  N        12.5832990769       -1.6346079370       -0.2626618207
  C        12.7419669853        0.4719928497       -1.5847093749
  H        12.9641460284        2.6399045735       -2.3292431828
  C         6.4112875149        7.2796181374       19.7740884686
  N         6.5906719933        8.6091275196       19.8907603554
  O         7.4118360736       10.4565113442       18.7428422526
  H        17.6345097871        7.1357975805        5.9192949643
  H        16.9931868027        7.0898781004        7.4823745498
  C        18.4994729645        5.5380256905        7.2061602055
  H         6.3919971034        8.0636429916        0.9417498230
  H         5.1871322023        6.7002774356        0.9718000102
  C         5.1667835174        7.9622549801        2.7213376853
  C        12.9789712442       -0.2047654694       -2.7910440083
  S         6.1569841103        6.1970606924       21.1236936583
  C         6.6364548782        9.2457686341       21.1799186714
  H        18.2096031505        5.0661847975        8.2441606490
  H        18.6900778425        4.6883595478        6.5072654173
  C        19.8228544932        6.3427323030        7.4838184209
  H         5.8125206355        8.5960352910        3.3335460799
  H         4.8773982044        7.1632199784        3.4463956480
  C         3.9776853988        8.8420590457        2.0125780207
  H        12.5075488487       -1.1784958261       -2.7789725993
  C        13.5536436588        0.1594975926       -3.9659278593
  H         6.0268001960        8.7054154230       21.9514880930
  H         6.1167313232       10.1641657236       21.2466041569
  C         8.1265192188        9.3806465338       21.5298668994
  H        20.4528782187        5.6411878492        7.9641124913
  H        19.5594118444        7.1058021883        8.2316738730
  C        20.3906530354        6.9566934834        6.1731787248
  H         3.5071162534        8.2915001576        1.1966160395
  H         3.1291601241        8.7810729447        2.6994156267
  C         4.3917183353       10.2578152375        1.6500020010
  S        14.2314468230        1.6914011238       -4.4280177645
  C        13.8291315614       -0.9435213884       -4.9017063339
  H         8.5462785495       10.1369272164       20.7948578120
  H         8.6989911753        8.4193964382       21.4278219872
  H         8.3576301821        9.9380974317       22.4094057684
  H        21.4574329028        7.1594773032        6.2789377921
  H        20.3948358087        6.2036297728        5.3978642837
  H        19.8533123346        7.8105568760        5.8234317578
  H         4.7548787638       10.8470915427        2.4891270602
  H         5.1932991508       10.2214014629        0.9078679158
  H         3.5680185717       10.8353197271        1.2384428943
  C        14.7607040922        0.9310802831       -5.8699619323
  N        14.4922090819       -0.3900661142       -5.9697735440
  O        13.4227334517       -2.0902114706       -4.6849720789
  S        15.2563368228        1.8250704974       -7.2733318171
  C        14.6952510706       -1.1551441156       -7.2159239643
  H        14.7649549084       -2.2653770343       -7.0320531861
  H        15.6402264334       -0.9471286550       -7.5994748173
  C        13.5285172378       -0.9398637145       -8.2599639339
  H        13.6807182463        0.0519647136       -8.6517136470
  H        12.4987238837       -0.9796456164       -7.8565457715
  H        13.4197620630       -1.6668014894       -9.1167898405
  H        -2.3310404564       14.8302049899       15.8720095800
  C        -2.7618608057       13.8558221056       16.2051329383
  H        -3.7622866904       14.1401745306       16.6080822472
  C        -1.7280665107       13.3209130240       17.2239124714
  C        -2.8071268405       13.0583441997       14.9510041694
  C        -1.8412991785       13.9917937015       18.6194583774
  H        -1.7954387403       12.2108660952       17.1949608461
  H        -0.7078743242       13.4048862133       16.8376895427
  H        -2.5384718967       12.0403853047       15.0925008138
  H        -3.7819819633       13.1170776752       14.4711992787
  H        -2.0535224942       13.4672709677       14.3002134316
  C        -1.4709983242       12.9678260300       19.7336427095
  H        -2.9278672624       14.1984473352       18.7130558122
  H        -1.3080043145       14.9484050855       18.7794474622
  C        -1.6175041433       13.5190720343       21.1101471131
  H        -1.9549707988       11.9688399311       19.6110069382
  H        -0.4501352328       12.7582737078       19.5647522987
  C        -0.7442262093       12.8145565444       22.2489779064
  H        -2.7147462550       13.4431380884       21.3839037038
  H        -1.4453137959       14.5968868433       21.1130970306
  C         0.4652326130       13.6116529604       22.6367530117
  H        -1.3973347654       12.5827002231       23.0822583818
  H        -0.4510068279       11.8411434906       21.9597222748
  C         1.5388211321       12.8475787222       23.3937443576
  H         0.9100908188       14.0788487269       21.7658272850
  H         0.0667050657       14.4838069510       23.2436553274
  C         1.9657069238       11.5604375042       22.6958047866
  C         1.1316402671       12.1588319666       24.6648273123
  C         2.7276449891       13.7993245463       23.7231128942
  C         1.8246032301       10.4726091653       23.5142345252
  C         2.4056957525       11.1817010190       21.3794736684
  C         1.2773874935       10.7938923582       24.7264278233
  C         0.6405264665       12.7327700513       25.8634940993
  H         2.9084301469       14.4141727539       22.9145954858
  H         2.3658123310       14.3801005963       24.5623624748
  C         4.0781876217       13.0268323620       24.1279846799
  S         2.2883502085        9.0491442410       22.7556651380
  C         2.6897640328        9.8751341717       21.3162078543
  H         2.6830556038       11.9551503597       20.6864876267
  C         0.8462936768       10.0979204864       25.8275195515
  H         0.6659378065       13.7770660722       25.9020098271
  C         0.1669075822       12.0369450333       26.9659928557
  H         4.4287685692       12.5172319998       23.2544581917
  H         3.9255443666       12.3121896649       24.9306136210
  C         5.1511803737       14.0005881438       24.5630693760
  C         2.9364629723        9.1643467934       20.0085269606
  C         0.2834556686       10.6862627490       27.0206348011
  H         1.0396715831        9.0849684523       25.8561470890
  C        -0.2632056043       12.4056378707       28.2442463822
  H         5.9538930320       13.4149687505       25.1389242259
  H         4.7363905607       14.8066928462       25.1821895627
  C         5.7325180011       14.7140630537       23.3690835781
  C         2.8489326213        7.8104812706       19.7640448229
  C         3.3503911356        9.9739557582       18.8633330554
  C        -0.0811597615        9.9982387258       28.3003245407
  C        -0.4457308704       11.2959461642       29.0646663925
  S        -0.5706737238       13.8860047201       29.1076772197
  H         6.4775534781       15.4003062986       23.6244663037
  H         4.8967089050       15.3346863785       23.0415332817
  C         6.3132592906       13.8786703341       22.2679697527
  N         2.7365648773        6.7207098453       20.7201629280
  C         3.0996811431        7.2682683604       18.4904561345
  C         3.7008890512        9.4538003357       17.6361718285
  H         3.6416796979       11.0082036079       18.9947214030
  C         1.0859312682        9.2059485685       28.9231339413
  C        -1.3162997635        9.0071052166       28.1967238230
  C        -0.7735420438       11.6594480887       30.4079050364
  C        -0.9521438366       13.0134672194       30.6025387732
  H         7.3159477466       14.2187337024       21.9995722356
  H         6.4057953371       12.9378211180       22.6026402988
  C         5.4513367811       13.8445513793       21.0447939782
  S         2.7647802077        5.3223531479       19.9051772040
  N         3.1222182159        5.8721194193       18.4386189050
  C         3.4305992186        8.0565207972       17.4016202087
  H         4.0572271539       10.0694046689       16.8682041255
  H         1.4253399679        8.4945291267       28.1371774626
  H         0.6683854511        8.6827178982       29.7362990547
  C         2.2557626863       10.0979876376       29.3808792308
  H        -1.1900738922        8.2271390470       27.4575190777
  H        -1.4934862393        8.4870434851       29.1091993245
  C        -2.5995484988        9.8219045125       27.7901864392
  H        -0.9290829992       10.8099743669       31.0996491990
  C        -1.3142179769       13.7839451459       31.8113744680
  H         5.3430732865       14.9059499090       20.6944364683
  H         4.4504563435       13.4344325386       21.1692305847
  C         6.1923864762       13.1092829247       19.9773304526
  C         3.6614703634        7.4386171079       16.2040173956
  H         2.6249010514       10.7197021899       28.5413160708
  H         1.9787223513       10.8630098928       30.0842901827
  C         3.3936791048        9.2318181852       30.0192020582
  H        -2.4681388986       10.5271088435       26.9312617509
  H        -2.7800704376       10.4919274219       28.5911566856
  C        -3.7450002187        8.9055814251       27.6855642018
  C        -1.2681644612       15.1371352374       31.9338763871
  C        -1.7871455358       12.9951372656       32.9484253329
  H         7.2592383462       13.2091913489       20.2028212254
  H         6.0254378680       12.0236606805       20.0465451057
  C         5.8423268429       13.3649052807       18.5693383341
  H         3.4998701550        6.3653834096       16.1983870336
  C         4.0466835771        7.8651717772       14.9305065441
  H         3.7157078610        8.4965319585       29.3199414966
  H         2.9452466491        8.6280884785       30.7594765259
  C         4.5921032044       10.0293823128       30.6122874063
  H        -3.7742606952        8.3048278888       26.7476116391
  H        -3.5652366211        8.1442764345       28.4162508307
  C        -5.1073159576        9.6591126415       27.7772579682
  N        -0.9229215028       16.1401037090       31.0487779768
  C        -1.6131763175       15.7210491935       33.1654855165
  C        -2.0566429906       13.5501566017       34.1825512125
  H        -1.9389714735       11.9709140308       32.7989481730
  H         4.8232231530       13.4723208762       18.4051795059
  H         6.3661590251       14.2849151692       18.2134628127
  H         6.2283995365       12.5741598011       17.8748234485
  S         4.2879667147        9.4528850615       14.4306734243
  C         4.0880658221        6.8568280969       13.8903100222
  H         4.5771200411       10.9769868171       29.9790034361
  H         4.3972264322       10.3833152144       31.6225399077
  C         5.9306958421        9.2995213551       30.4036953046
  H        -5.1567550037       10.4846866077       28.4622520793
  H        -5.7408923662        8.8966902794       28.1584253471
  C        -5.6246273429       10.1313963790       26.4682459525
  S        -0.9624928895       17.5936916444       31.7661904841
  N        -1.5122272069       17.1324041173       33.1905430072
  C        -1.9505825813       15.0261461184       34.3167472008
  H        -2.1894741782       13.0022304156       35.1119839896
  C         4.5834164784        8.8056470903       12.8693927845
  N         4.5193856571        7.4267280767       12.7922047446
  O         3.9697135151        5.6483475493       14.1515927818
  H         6.7482576000        9.9280688578       30.6843234001
  H         6.1238615410        9.1553092491       29.3466302283
  C         6.0887560216        7.9404564325       30.9936190130
  H        -5.0422389796       10.9691840700       26.1542010662
  H        -5.5474660904        9.4839792692       25.6170639075
  C        -7.0845933825       10.5148326001       26.5273434464
  C        -2.1602114732       15.7268434476       35.4936661581
  S         4.9032626170        9.7198372668       11.3508800773
  C         4.6648367390        6.6800916754       11.5564287728
  H         6.4152324510        7.9958210105       31.9347347633
  H         5.0735108569        7.4652681857       31.0467361000
  C         7.1328106555        7.0101719333       30.2520760003
  H        -7.1922497233       11.6263955259       26.2876969008
  H        -7.5277728500       10.3695231991       27.4918999840
  C        -7.9874338340        9.7126795677       25.5797997815
  H        -1.9457571438       16.7219831097       35.4487625424
  C        -2.6531719082       15.3611385806       36.7345293434
  H         5.4915430594        7.1431973285       10.9860228841
  H         4.9997396794        5.7033171652       11.6205755518
  C         3.3303244360        6.6963736582       10.7363256765
  H         8.1609221604        7.4701583112       30.2221612865
  H         6.6988526589        6.9071714306       29.3009406461
  C         7.1235438198        5.5944774778       30.8828121895
  H        -7.8106560986        9.9160552662       24.5068490405
  H        -7.6924683263        8.6772751341       25.5947374030
  C        -9.4914526906        9.8163420155       25.8948382422
  S        -3.3513492272       13.8372986669       37.2650755813
  C        -2.7550168711       16.4547624307       37.7244144333
  H         3.3740575699        7.2502903770        9.8232396631
  H         3.0737343797        5.6766016037       10.4339603880
  H         2.4207512648        7.0822879184       11.3478274553
  H         7.0366666850        5.5589207699       31.9948853372
  H         7.9408514638        4.9256686141       30.6447835116
  H         6.2021150615        5.1359635849       30.5761908114
  H        -9.6196023124        9.4755536784       26.9087442961
  H       -10.1104782112        9.1271779348       25.3106392928
  H        -9.8266930825       10.8855326053       25.8281536775
  C        -3.5714247074       14.6440821275       38.8174130662
  N        -3.3296818338       15.9542144302       38.8533744262
  O        -2.5198188317       17.6839572857       37.5147929733
  S        -4.3415816575       13.9575949557       40.2620240153
  C        -3.4301040522       16.8287276094       40.0196996924
  H        -3.6627512239       17.8663364615       39.7840290489
  H        -4.2563846725       16.5269631522       40.6467689341
  C        -2.2933946421       16.6248200726       40.9916974161
  H        -1.7577136263       17.5979310536       41.0138034734
  H        -2.6885576556       16.2522326597       41.8776369348
  H        -1.7898092626       15.7239820442       40.6210922832
