352
i=
  H         2.7801555954        3.9538580223       12.3389513182
  C         3.0230649275        2.9804743372       12.6245412109
  H         2.3460513614        2.3078370708       12.1439670206
  C         4.3966277645        2.7201949760       12.0808356286
  C         2.9303667762        2.8780934877       14.2005244054
  C         4.4484196998        2.8472790116       10.6201439577
  H         4.6457292281        1.6926660116       12.3534834230
  H         5.1711794229        3.3520703505       12.5385591028
  H         3.8075562606        3.4313624641       14.6321734447
  H         2.9720411702        1.8360076021       14.4604178480
  H         1.9482693057        3.1666989142       14.6023522907
  C         5.0115518876        1.5652140200        9.8902502245
  H         3.4503479409        3.1226615980       10.2583732324
  H         5.0922265106        3.7053204123       10.3609836448
  C         5.5424623892        1.7279246852        8.4528956704
  H         4.3517078747        0.6775081273       10.0454338779
  H         5.8496990298        1.1783858529       10.5158399863
  C         6.7747279433        2.5984233635        8.4569045594
  H         4.8134811819        2.1500097914        7.7602690695
  H         5.8602987221        0.8280865874        7.9562723472
  C         8.0571125491        1.8642584522        8.8809111115
  H         7.0804057222        2.8064842576        7.4446407446
  H         6.5858279568        3.5806443588        8.9198784126
  C         9.2670010312        2.8673136230        9.2185993707
  H         8.2958484143        1.1565766813        8.0709084934
  H         7.8006933985        1.2739389531        9.8046390515
  C         8.8656240772        4.1951947141        9.8123310034
  C         9.7514512981        3.5174476893        7.9452557439
  C        10.3947318661        2.2148481679       10.1288877456
  C         9.1016953365        5.3107492654        8.9738106582
  C         8.2523443371        4.5922427429       11.0463049355
  C         9.6232832883        4.8558183009        7.7728418471
  C        10.1417631492        2.8490495386        6.7550302380
  H         9.8815945011        1.4712314840       10.7166474506
  H        11.1546008050        1.6020985797        9.6030458273
  C        11.2577986227        3.1398077778       11.0057724856
  S         8.5505256478        6.8025737973        9.6892239746
  C         8.0545079219        5.9331117052       11.1316219185
  H         8.0105020972        3.8090858650       11.7719851416
  C         9.9593070705        5.4002563498        6.5335372214
  H        10.2216583140        1.7050302389        6.8595746754
  C        10.4788292995        3.3582252163        5.5708899355
  H        10.5554275507        3.6409023583       11.6651330649
  H        11.8379887617        3.9064177494       10.3935738904
  C        12.2451956485        2.3552474148       11.8344397657
  C         7.6125808064        6.6463186681       12.3586310725
  C        10.4064684718        4.6913830917        5.4158043396
  H         9.8389630884        6.4672237741        6.4165531095
  C        10.8671646758        2.9171810882        4.3223670535
  H        13.0088821107        3.0259572720       12.0460527741
  H        12.7528542689        1.5209353242       11.2920972825
  C        11.7516272635        1.8636021377       13.1212021821
  C         7.8029682648        8.0489116590       12.5927648676
  C         6.9512003893        5.8500448266       13.4702665966
  C        10.8062790363        5.3296665590        4.1030659212
  C        11.0613148615        3.9598767335        3.5045119480
  S        11.1773466497        1.3653563208        3.6885171256
  H        10.9402401291        2.5097575542       13.3477601396
  H        11.3129692745        0.9168756467       12.9305981004
  C        12.7703778516        1.6824115382       14.1684120795
  N         8.1181824232        8.9734707857       11.6762438157
  C         7.4727321886        8.6192038435       13.8071719167
  C         6.7141777689        6.3824645806       14.7182859922
  H         6.7388201575        4.7907942284       13.3744764230
  C        12.1687248609        6.0913204995        4.2400682492
  C         9.8354252923        6.1533060595        3.2575499552
  C        11.6060688547        3.4757916134        2.3088559761
  C        11.5672154531        2.1217851008        2.2272852436
  H        13.7557109836        1.9897974194       13.9403932911
  H        12.8264327299        0.5896236658       14.3157721080
  C        12.2025397079        2.3018970837       15.4050520102
  S         8.0538241270       10.4862415285       12.3447564557
  N         7.6773198890       10.0229465779       13.8686368072
  C         7.0092025871        7.8215202505       14.9487158757
  H         6.2454029748        5.7210586431       15.4745290727
  H        12.0382228083        6.8733912896        4.9534423511
  H        12.4511393901        6.4085350475        3.2306974719
  C        13.3708140593        5.2506791855        4.7239153402
  H         9.4592967992        7.0052062761        3.8036539613
  H        10.2963923369        6.6789803517        2.4453076954
  C         8.6084629364        5.2606388187        2.9012540000
  H        11.9173256538        4.1130449072        1.5387489524
  C        11.9348532924        1.4104910806        1.0005818786
  H        11.7803295059        3.2349871228       15.1150209316
  H        11.3940835636        1.6397247581       15.6614245072
  C        13.2331035142        2.3456967832       16.4933425423
  C         6.7891978306        8.5372888542       16.1448162635
  H        13.0357890691        4.6339368518        5.5432595937
  H        13.6966289920        4.6135372735        3.9232475555
  C        14.6279779895        5.9858933457        5.0606194270
  H         8.2202794874        4.7860186361        3.8041371424
  H         8.9924749446        4.5229423893        2.1590159224
  C         7.4630136020        6.0748979568        2.2317187206
  C        11.9363953189        0.0077880401        0.8497170800
  C        12.2294780195        2.1987887346       -0.2648734807
  H        14.1857358546        2.8308965538       16.1161117399
  H        13.5460591820        1.3554338344       16.7439061827
  C        12.8020649390        3.0319907042       17.8209837366
  H         6.8056616994        9.6065730037       16.1389088748
  C         6.5003083056        8.1966929208       17.4416164673
  H        14.3569516387        6.6513265544        5.8894531480
  H        15.1151721910        6.6007877816        4.2487248151
  C        15.7452922089        5.0707540040        5.5994604528
  H         6.9441191784        6.5276695056        3.0906088378
  H         7.8501697921        6.8118104799        1.6512200921
  C         6.4100114914        5.2935061366        1.4779169952
  N        11.6431033898       -0.9106576652        1.8874660294
  C        12.2080053469       -0.6330603531       -0.3418644211
  C        12.3869233274        1.5744169657       -1.4805090449
  H        12.1954520483        3.2450544339       -0.2739611368
  H        12.4390210642        4.0166134232       17.6536095129
  H        13.6815161948        3.1892220124       18.5194869893
  H        11.9762209669        2.5193129739       18.2585747991
  S         6.2976067186        6.6491706565       18.0959736536
  C         6.3140562867        9.3255442393       18.4158540573
  H        15.2608887386        4.2592014858        6.2098022206
  H        16.2373158958        4.5889527554        4.7736451599
  C        16.8523916243        5.8910232499        6.2147120962
  H         6.2854874452        4.2718889587        1.7763497162
  H         6.8351731934        5.3068273998        0.4592535472
  C         5.0347735756        6.0225414959        1.3320193509
  S        11.7331097683       -2.3822604611        1.3102923446
  N        12.1001586018       -2.0082161779       -0.2058702326
  C        12.4059882635        0.0814952111       -1.5412100701
  H        12.5631271782        2.1712066843       -2.3295974572
  C         6.1678094254        7.4135967927       19.6485326849
  N         6.0299554887        8.7632756083       19.6220528732
  O         6.4619752752       10.5107697523       18.2669130240
  H        17.3250791389        6.4207949404        5.4133839628
  H        16.5373779012        6.6700786000        6.9549289489
  C        17.7823010882        4.9883408534        7.0613687487
  H         4.4385459321        5.2556812458        0.7332112674
  H         4.5965854179        6.1945733732        2.2880418244
  C         4.9583236657        7.3710829369        0.4865993001
  C        12.7702211798       -0.6603477083       -2.7238210395
  S         5.7073200349        6.5835640795       21.2214007231
  C         6.1034042151        9.5211497464       20.9092981457
  H        17.1197425166        4.4970493565        7.8045566704
  H        18.2061687352        4.1127688179        6.5834303383
  C        18.9185693212        5.7228844799        7.7636333063
  H         4.5382398299        7.1237410393       -0.5024716935
  H         5.9916939105        7.8747563959        0.4046474515
  C         3.9973740244        8.4057089547        1.0484844906
  H        12.7274225700       -1.6648512066       -2.5443394844
  C        13.2911680376       -0.3310174267       -3.9677663400
  H         5.6536696989        9.0600373289       21.8102946310
  H         5.5929070704       10.4489679003       20.7080619534
  C         7.5191870535        9.7105918017       21.2419543001
  H        19.3419689871        5.2664652970        8.6773547919
  H        18.4809524634        6.6556820644        8.0438549944
  C        20.0291534693        6.0331485983        6.7189002031
  H         3.5805025738        9.0283178953        0.2649188319
  H         3.1173145697        7.8596676827        1.3411768138
  C         4.4550530893        9.2401080365        2.3047254333
  S        13.9922668514        1.1141999284       -4.5203661964
  C        13.5484443007       -1.4667275288       -4.8494029174
  H         7.6267769518       10.3635817006       22.1034953281
  H         8.2245171057       10.1152445809       20.5344233778
  H         7.9118496407        8.7642825747       21.6360035402
  H        19.8929625846        6.7658466828        5.9963407084
  H        20.9700953247        6.3869327050        7.1576318464
  H        20.3523586230        5.1307690150        6.2187981848
  H         3.6774968009        9.6188867615        2.8772088996
  H         5.1152633290        8.5944828991        2.9210696478
  H         5.0292595468       10.1525280292        2.0322295090
  C        14.2192869614        0.3116205332       -6.0308828293
  N        14.0520834534       -1.0377478978       -5.9846575231
  O        13.1990300586       -2.6490085527       -4.7136651106
  S        15.1307089027        0.9502218872       -7.3649576534
  C        14.1025200745       -1.9895856192       -7.1327122860
  H        14.1536348538       -3.0499014798       -6.8460176194
  H        14.9861639397       -1.7391432895       -7.7342049700
  C        12.8268073803       -1.7047704145       -8.0254884752
  H        11.9955775897       -1.6429325192       -7.3200807084
  H        12.6590055812       -2.4966850578       -8.7408782601
  H        12.8569683940       -0.7484604869       -8.5874315949
  H        -3.0008821618       15.0831581882       16.2978853955
  C        -3.2530259222       14.0822583690       16.2487945886
  H        -4.2864143108       13.8465588407       16.4202102217
  C        -2.3284325670       13.3679494002       17.3355147237
  C        -2.9057727291       13.7222804577       14.7642053170
  C        -2.9503768915       13.5264976073       18.7011425005
  H        -2.2224673088       12.3053608291       17.1753057900
  H        -1.3656151037       13.7670645702       17.1657307477
  H        -2.6145651997       14.6419683124       14.3059435189
  H        -1.9591465507       13.1467317524       14.6861630461
  H        -3.7316518121       13.2537079684       14.2416614616
  C        -1.8843804385       13.4542872194       19.7433675315
  H        -3.7461151185       12.7782481767       18.8547875597
  H        -3.3897557874       14.5238841090       18.8874500599
  C        -2.3493576048       13.6414972351       21.1868226705
  H        -1.3574353637       12.5486725467       19.6027363067
  H        -1.0819835696       14.1418288972       19.5955651342
  C        -1.3605966502       13.0955201931       22.1637380628
  H        -3.2980919456       13.0914534260       21.4874546957
  H        -2.5901428093       14.6820056823       21.4201052148
  C        -0.1744745077       13.9925126603       22.2678734369
  H        -1.7874216355       12.9282575698       23.1865017181
  H        -0.9904852020       12.1348055992       21.7871009415
  C         1.0467530787       13.3558851499       23.0162479627
  H         0.1425742777       14.3053821018       21.3227256602
  H        -0.4654430887       14.9064877522       22.8183580512
  C         1.5365136307       12.0612256671       22.2866866940
  C         0.6740208756       12.5843856156       24.2732385728
  C         2.2676796217       14.4195299557       23.1526347381
  C         1.3590812419       10.9490577822       23.1081695193
  C         2.1285388629       11.7265616746       21.0990686326
  C         0.7696817362       11.2346994009       24.3545325170
  C         0.2554329230       13.0845961838       25.4210477297
  H         2.3934436891       15.0296025501       22.2648726362
  H         2.0131454779       15.1285127910       23.8838261637
  C         3.5277303693       13.7834564982       23.6815891924
  S         1.9482131165        9.4685674203       22.4802327711
  C         2.3831192506       10.3446160914       20.9807050685
  H         2.2165236673       12.5230532222       20.3519792574
  C         0.4034849838       10.5090119618       25.4339882927
  H         0.3028668398       14.1603827634       25.4653707833
  C        -0.0574959538       12.3784388292       26.5582802745
  H         3.9144501369       13.2035517942       22.8720738593
  H         3.2946994302       13.1794437177       24.5091711744
  C         4.6086197468       14.7430678398       24.0681181605
  C         2.7248726943        9.6962736211       19.7083716745
  C        -0.0314919763       11.0710396854       26.6125162470
  H         0.3393495501        9.4315567005       25.2776318775
  C        -0.5497993463       12.7656827247       27.8114744679
  H         5.3249923504       14.4210186535       24.8426760767
  H         4.1888631679       15.5423280813       24.6388697017
  C         5.5080284037       15.2537589462       22.8564956067
  C         2.8273944044        8.3094439218       19.4890360789
  C         3.0217772073       10.5557186155       18.5656919417
  C        -0.3535340852       10.3996118888       27.8770398953
  C        -0.6958668569       11.6808595922       28.6371322177
  S        -0.8639970264       14.2785663732       28.5070187062
  H         6.1016205448       16.1108664568       23.1117113489
  H         4.8468059367       15.5959829361       22.1277786457
  C         6.5391994752       14.2466237252       22.3962584683
  N         2.5884411102        7.3176024872       20.4861782955
  C         2.9461353857        7.7593676822       18.2327604957
  C         3.2578771404       10.0257314737       17.3456504709
  H         3.0480965257       11.6303021710       18.5895698481
  C         0.9240796912        9.7201638023       28.3669787206
  C        -1.5436779181        9.4574122981       27.9866209578
  C        -1.0917954823       12.1543524149       29.9592736301
  C        -1.2748112888       13.5229414128       30.0221342660
  H         7.4239072996       14.7617621029       22.0479173838
  H         6.8709196955       13.5922107236       23.2037381184
  C         5.9921781724       13.4310416433       21.1970800948
  S         2.4225731469        5.8810897564       19.7652450974
  N         2.7759211023        6.3499123152       18.2757643430
  C         3.1490038767        8.5666680252       17.1023822536
  H         3.5344505936       10.6523334785       16.5439781650
  H         1.3517464910        9.0234335338       27.6283668353
  H         0.5416141203        9.1115741673       29.2094484861
  C         1.9680794840       10.6555267253       28.9159874612
  H        -1.2135663020        8.5227886032       27.4844521165
  H        -1.7119335925        9.1819319969       29.0140898756
  C        -2.8646731096       10.0536243105       27.3684931873
  H        -1.1223353803       11.4732236191       30.7225839639
  C        -1.4665101956       14.3678706612       31.2528702300
  H         4.9444586286       13.3929606121       21.0527427850
  H         6.2517179179       12.3512134176       21.4904778596
  C         6.6152687800       13.6913138528       19.7461693423
  C         3.2273751937        7.9126950500       15.8815351104
  H         2.2299672337       11.4392084223       28.1712900117
  H         1.6244314882       11.2361188529       29.8209045322
  C         3.1366845897        9.8400883584       29.4418288252
  H        -2.5992334692       10.3481962202       26.3518288701
  H        -3.1867479051       10.9232170866       27.8282906807
  C        -3.8566552266        9.0002480672       27.1753660821
  C        -1.5124964061       15.7959663277       31.3988026733
  C        -1.6709171472       13.5841700585       32.5172345988
  H         6.9651856473       14.7695630261       19.7199872270
  H         7.2931419894       12.8339386221       19.5582494082
  C         5.5704472718       13.4214634808       18.6522926813
  H         3.0251371399        6.8320539399       15.9682721097
  C         3.6174804535        8.2520765729       14.6084431233
  H         3.3658287319        9.0395307732       28.7658802162
  H         2.8708507433        9.3468277587       30.3280556331
  C         4.3509882887       10.7704805823       29.7261139648
  H        -3.6285736909        8.5662415954       26.1853061875
  H        -3.9049168024        8.1756899544       27.8811852082
  C        -5.2504908740        9.5348148855       27.2943167606
  N        -1.3844342699       16.7322295800       30.3215903747
  C        -1.7194046934       16.4648775252       32.5923530304
  C        -1.9347858877       14.2972304614       33.6674885338
  H        -1.5332590026       12.5208556401       32.5334251382
  H         6.1418066287       13.6756477877       17.7064813870
  H         4.9823237749       12.5172461243       18.6170229750
  H         4.7731447147       14.1882222933       18.7248619120
  S         4.1161776033        9.7595695392       14.1312061011
  C         3.7344662183        7.1633657102       13.5903535753
  H         4.3081134592       11.6916191661       29.0849654874
  H         4.3325597246       11.1593772262       30.7706190518
  C         5.7195947883       10.0969964639       29.6945624663
  H        -5.3407636858       10.3087944046       28.0848663599
  H        -5.8250586875        8.6600393780       27.5687827518
  C        -5.6889979134        9.9623291839       25.8882257011
  S        -1.4247500718       18.2180630441       30.9353664926
  N        -1.7051774639       17.8315611201       32.4960762200
  C        -1.9435241335       15.7708669379       33.8016235259
  H        -2.1829076045       13.7109267162       34.5350847548
  C         4.4897254944        9.0162610085       12.5518145365
  N         4.2414357866        7.7261962888       12.4889046035
  O         3.5028475341        6.0157698128       13.8783665581
  H         6.4793607339       10.8125990004       29.9004325854
  H         5.8497089323        9.6987638533       28.6931140279
  C         6.0546899894        8.9571023161       30.6714206279
  H        -5.0015521366       10.8240062909       25.6545782912
  H        -5.6381126885        9.1419313606       25.1452151250
  C        -7.0774953579       10.6312597194       26.0294070271
  C        -2.3169439441       16.5493138923       34.9313714256
  S         4.9565860126        9.8358547685       11.0996706617
  C         4.2122640519        6.8499240058       11.2930482910
  H         6.8257312560        9.2539726117       31.3984543558
  H         5.1391549272        8.7244346453       31.2651945809
  C         6.5107345808        7.6800056085       29.9476471281
  H        -7.2403322348       11.3952736494       25.2339757159
  H        -7.0285080494       11.1364456020       26.9613562148
  C        -8.1396273851        9.5730212763       25.8932952446
  H        -2.0745361293       17.6024795170       34.8706981755
  C        -2.9932512411       16.2500564581       36.1559953083
  H         4.9796341828        7.0878986990       10.6688547805
  H         4.4780030571        5.8243761496       11.5241956447
  C         2.8159001694        6.9667420031       10.5746609619
  H         7.5492662569        7.6264695826       29.8860280723
  H         5.9964083117        7.5166604073       29.0154511025
  C         6.1126665149        6.3954506739       30.7813155760
  H        -8.0138661371        9.0831993833       24.8942261709
  H        -8.0258635079        8.9360979100       26.7956692032
  C        -9.5405129527       10.0696580924       26.0999420806
  S        -3.4475235659       14.6454508657       36.6664832658
  C        -3.2693165888       17.3186956799       37.1375704246
  H         2.0548558473        7.1812456819       11.3451093758
  H         2.8653532306        7.7343954865        9.6793036171
  H         2.5255945528        6.0108909181       10.1099552287
  H         6.6146351999        5.5625436987       30.4009801494
  H         5.0853067572        6.0910557684       30.6844682642
  H         6.2302021883        6.5057965576       31.9061568229
  H       -10.1937467272        9.2783718375       26.4351539575
  H        -9.9271249261       10.5103340021       25.1916726437
  H        -9.5754736332       10.8869564712       26.8271584078
  C        -3.6520305167       15.4271304400       38.2929506856
  N        -3.5536047044       16.7823830416       38.3259131642
  O        -3.1022404078       18.5583293083       36.9827371484
  S        -4.2418331088       14.6576189436       39.7826313273
  C        -3.7251114125       17.6650912779       39.5263570074
  H        -3.9885037044       18.6862671092       39.1815474191
  H        -4.6424153229       17.2849614667       39.9472721770
  C        -2.4487858869       17.6765781992       40.4501972932
  H        -2.4051199982       16.8201545366       41.0350768246
  H        -1.6939963464       17.7801558000       39.7075859251
  H        -2.6069276343       18.5014423193       41.1563732440
