352
i=
  H         3.3843445888        1.1695030793       14.0581793161
  C         4.1092393228        1.8264906475       13.6273296492
  H         4.9352406269        1.2005900602       13.2950362726
  C         3.5759600165        2.5428367612       12.4064283126
  C         4.8277481904        2.7994739862       14.5399326618
  C         4.6511840963        2.7806461929       11.2307079905
  H         3.1966329332        3.4794990141       12.6448643492
  H         2.7084469593        2.1046944069       12.0301444749
  H         4.3298874515        3.4686296193       15.1988736683
  H         5.4318733798        3.5094044481       13.9609541595
  H         5.3361176282        2.2378170331       15.2518972270
  C         4.9932749784        1.4807949562       10.4561133683
  H         4.3621845558        3.6003933147       10.5568909568
  H         5.5717453477        3.3351491502       11.6406856044
  C         5.4634251531        1.7397971927        9.0536860963
  H         4.1603819760        0.8067252747       10.5311848851
  H         5.7489851782        0.9466629225       11.0731660835
  C         6.7371452683        2.4863228183        8.7795635467
  H         4.7002320966        2.3544593550        8.5987247293
  H         5.4743554509        0.7997930947        8.4974900918
  C         7.9207824440        1.7447336001        9.4334330702
  H         6.8852550766        2.6851013866        7.7180707712
  H         6.5940500973        3.4861643718        9.2719164942
  C         9.1665648049        2.6804579082        9.4745059016
  H         8.1466489244        0.8705084262        8.8842748205
  H         7.7598581748        1.3451684608       10.4035061081
  C         8.8214768337        4.0068387395       10.1564118180
  C         9.6568213348        3.3773522577        8.2314756927
  C        10.1538637727        2.0621301041       10.4636279648
  C         9.1533370766        5.0917223852        9.3807848804
  C         8.4375393909        4.4186664146       11.4303385773
  C         9.6039485686        4.6942761216        8.1744069181
  C        10.0910853089        2.7666274562        7.0474077729
  H         9.7794392646        1.9845461591       11.4448788768
  H        10.4901124626        1.0471080231       10.1220549385
  C        11.4694913584        2.8804789525       10.5587581154
  S         8.6096122519        6.6258314020        9.9824425846
  C         8.1063443972        5.7980561826       11.4321487293
  H         8.4328628136        3.7119619316       12.1948204293
  C         9.9495613420        5.3386651027        7.0271350609
  H        10.0355620797        1.6284583766        7.0613249408
  C        10.4224746391        3.3624212827        5.8869615714
  H        11.3324606602        3.8736021985       10.8395949989
  H        12.0462630969        2.8544037881        9.6138099520
  C        12.4795524650        2.0699199758       11.4169219146
  C         7.5676888952        6.5889705249       12.6209590549
  C        10.2642038993        4.7209227383        5.7833015027
  H        10.1037200641        6.4147736116        7.0513359341
  C        10.8285393372        3.0538744927        4.5907890218
  H        13.3376361149        1.8069846425       10.8590143881
  H        12.0380604295        1.0734876970       11.6634165506
  C        12.8495796522        2.7370400234       12.6892287543
  C         7.6357471865        7.9951209170       12.9160549012
  C         7.1904125570        5.7630601169       13.7769030210
  C        10.6636825808        5.4645554744        4.5519374399
  C        11.0500149866        4.1397250082        3.8193905501
  S        11.0533029567        1.6007004206        3.8116607634
  H        13.4504245286        3.7061092197       12.6942663952
  H        11.8873547176        3.1811604507       13.0800467599
  C        13.5609921166        1.7320653001       13.6205575059
  N         7.9615847360        8.9481290610       11.9453373833
  C         7.4113394252        8.5600194028       14.1600307020
  C         6.9311057944        6.3337027545       14.9527380469
  H         7.0903648038        4.7256959933       13.7908551507
  C        11.9701129324        6.3338298781        4.7015980409
  C         9.4741893018        6.0487032238        3.7310199404
  C        11.5713460108        3.8028652778        2.5369046220
  C        11.5077713387        2.4009432781        2.3711683775
  H        14.3465406558        2.2276638124       14.0483734379
  H        13.9054432217        0.9985002066       12.9892503020
  C        12.5458937822        1.2139343028       14.5623064622
  S         7.9785938518       10.4178432925       12.6776641047
  N         7.7589917553        9.9064820032       14.2005997531
  C         7.0863617824        7.7840974546       15.2551429488
  H         6.5261818016        5.6218359085       15.6343274220
  H        11.6164486223        7.3055524805        4.9441597618
  H        12.5542614796        6.4190169184        3.7796717142
  C        12.9464756671        5.7211970715        5.6853834309
  H         9.0132976675        6.8810798402        4.2219993562
  H         9.7756985157        6.4092569507        2.7628127614
  C         8.3177853775        5.0138413912        3.5206841480
  H        11.8599516152        4.5916634110        1.7526912599
  C        11.8493422895        1.6022907394        1.1169984530
  H        11.7192182969        0.8446577386       14.0102137087
  H        12.9224409901        0.3181209585       15.0372127128
  C        11.9334086558        2.2272138702       15.6275395924
  C         6.7831294071        8.3833236850       16.5547265218
  H        12.5841955333        5.8335854566        6.6471917167
  H        12.9402016619        4.6203763637        5.5623380935
  C        14.3781031513        6.2680524008        5.5587703359
  H         7.9637486061        4.6344853499        4.5835664583
  H         8.6563478701        4.0804933199        3.0517917283
  C         7.2333802038        5.4078192258        2.5774671771
  C        11.8650738481        0.1498207347        0.9434714926
  C        12.1298790945        2.3343047003       -0.1129220805
  H        10.8767993254        2.4119033705       15.2858172178
  H        12.3465482495        3.2627710335       15.5273810373
  C        11.9078284265        1.6707142616       16.9996117641
  H         6.8775818339        9.4827635572       16.4700628450
  C         6.4982576774        7.8835480671       17.8263264849
  H        14.5664745783        7.2715439286        5.8602375466
  H        14.5881920306        6.2082196947        4.5095413011
  C        15.3889919333        5.2717347405        6.1928425917
  H         7.7102846782        6.1095079260        1.8441060615
  H         6.8992515065        4.5333030434        2.0965032925
  C         6.0635121279        6.1400943486        3.1555169547
  N        11.5891807644       -0.8077230239        1.9116567996
  C        12.0963169387       -0.4707830991       -0.2793000755
  C        12.3039263809        1.7269763052       -1.3343257595
  H        12.0384527635        3.4507223440       -0.1262186340
  H        12.0358736860        2.6763070991       17.6606792604
  H        12.6825635007        0.9973765151       17.1983596136
  H        10.8992150169        1.3763299766       17.2132059114
  S         6.1552412097        6.3504951068       18.2964551263
  C         6.4464052022        8.9311519171       18.9663932599
  H        15.1230689880        5.2906882934        7.2785517727
  H        15.2581936592        4.3576072138        5.6667683412
  C        16.8046788338        5.7857548419        6.1547357025
  H         6.3966142477        6.9020681202        3.9315401953
  H         5.4623616466        5.4310732786        3.6894515093
  C         5.1244153018        6.7484206590        2.1131731940
  S        11.5139276627       -2.2896722458        1.2826809343
  N        11.9397395655       -1.8850036931       -0.2628790293
  C        12.3729123651        0.2064260062       -1.4455036210
  H        12.3969013214        2.3392105954       -2.2678439641
  C         5.9183714129        6.9621434626       19.9469040268
  N         6.0068690855        8.3110690434       20.1177894148
  O         6.5625638804       10.1376683201       18.8706453966
  H        17.1277040436        5.8360575487        5.1098761764
  H        16.8292421875        6.8013736853        6.5282229707
  C        17.8118404495        4.8922297974        6.8431077572
  H         5.5914115090        7.4907863957        1.4843384710
  H         4.7729304802        6.0701640395        1.3804709614
  C         3.9065662057        7.5585095899        2.6308232453
  C        12.7008708034       -0.4973512257       -2.6071110989
  S         5.4619788052        5.9506306799       21.3309031824
  C         5.9406036184        9.0187392367       21.4059491683
  H        17.3671615023        4.6529696335        7.7962233893
  H        18.0275950926        4.0332847856        6.2563515650
  C        19.0643425716        5.7557799737        7.0633452867
  H         3.7654708397        7.2831460628        3.6677202779
  H         3.0432327895        7.1658952823        2.1686768530
  C         4.0910214708        9.0694497941        2.3147823457
  H        12.4464626342       -1.4627372003       -2.5469627016
  C        13.1470576180       -0.1290769582       -3.8627886856
  H         5.1634145552        8.8174543142       22.1450808512
  H         5.7882325041       10.0819466521       21.2429111437
  C         7.3002898559        8.9468677048       22.0855544458
  H        19.6713120996        5.4555478908        7.8241083593
  H        18.8069374386        6.7610309638        7.3726046809
  C        19.8859813700        5.7865811129        5.7980234811
  H         3.4023040781        9.7613621415        2.9332239262
  H         5.0796703559        9.4115601202        2.5078894382
  C         3.7875111885        9.3761065859        0.8379929105
  S        13.7764510097        1.4628457362       -4.3660462687
  C        13.3392229397       -1.2169445638       -4.8408180828
  H         7.4326976433        7.9520905655       22.4835847017
  H         7.4994111318        9.5907246871       22.9532391247
  H         8.0658058470        9.1519047415       21.3791267033
  H        20.0206663753        4.6721194164        5.4951217627
  H        19.4960913869        6.4501345764        4.9700563148
  H        20.8749472620        6.0416636322        5.9311769203
  H         3.8471286594       10.4689796867        0.6180966079
  H         4.5242038201        9.0205692096        0.1595608321
  H         2.9023108793        8.9694356274        0.4111292525
  C        14.2537995663        0.7130876323       -5.8560981996
  N        14.0182852053       -0.6356636704       -5.9036284684
  O        13.0643249220       -2.4228167984       -4.6462869361
  S        15.3882681902        1.4133742960       -6.9829563593
  C        14.2798632320       -1.4018991289       -7.0992271160
  H        14.1685919216       -2.5107236053       -6.8558301289
  H        15.2497680201       -1.2860130512       -7.5189706936
  C        13.1730941601       -1.0095724115       -8.0656177475
  H        12.2220505564       -1.2108986217       -7.6249143718
  H        13.1419768958       -1.6885294891       -8.9191929870
  H        13.3501923546        0.0228456594       -8.3799841575
  H        -3.0363134609       15.0446212222       16.5704172522
  C        -2.9086340521       13.9699992783       16.6703424328
  H        -3.9445925974       13.6971724004       17.0082696770
  C        -1.9893194900       13.6474638905       17.8725095541
  C        -2.4172966673       13.2887252923       15.3775833715
  C        -2.5009241229       14.2644846568       19.1879315811
  H        -1.7742487122       12.5999897319       17.8556224070
  H        -1.0552849988       14.2479261400       17.5904610426
  H        -2.9507564580       13.5956374432       14.5181400406
  H        -1.4331874469       13.5817104292       15.1613841509
  H        -2.5307025215       12.1896143898       15.5234433913
  C        -2.2208873040       13.1797872826       20.2693095599
  H        -3.5385929294       14.5462337066       19.1236605106
  H        -1.8504291501       15.0581824213       19.3939665823
  C        -2.5266883224       13.4976195709       21.7755927345
  H        -2.7836735460       12.3239866118       19.8811267585
  H        -1.1486181720       12.9056279645       20.2207211310
  C        -1.4964664133       12.9480234428       22.7704180807
  H        -3.5007219221       12.9972638204       21.9573179980
  H        -2.7342519261       14.6191132672       21.9649051579
  C        -0.1687908661       13.7451543547       22.8640602598
  H        -2.0201401242       12.8015614199       23.7228077583
  H        -1.1955677661       11.9995398978       22.4650801006
  C         0.9248871638       12.9901178000       23.6691439330
  H         0.2285474666       13.8967647678       21.8582587343
  H        -0.4201014553       14.6821533617       23.3554145212
  C         1.3301462692       11.6649733182       22.9186213631
  C         0.6050268467       12.2987418128       24.9489915397
  C         2.1163868853       14.0512064698       23.7373005902
  C         1.1000358991       10.5813692405       23.7527609151
  C         1.8387723628       11.2347417061       21.6848379766
  C         0.6357120071       10.9436898753       25.0459961838
  C         0.1429963221       12.8494427344       26.1736381767
  H         2.0919995581       14.6883471487       22.8575014941
  H         1.9398620532       14.8200695795       24.4795466368
  C         3.4750887158       13.4148833537       24.0720600877
  S         1.5651921534        9.0443010863       23.0806811260
  C         1.9492972187        9.8782905890       21.5804767101
  H         2.0450858816       11.8991458695       20.8469073250
  C         0.2935600628       10.2378787511       26.1926085666
  H         0.0823620348       13.9343497020       26.0535951069
  C        -0.3302235576       12.2057089835       27.2122608541
  H         3.5971238463       12.5963618805       23.3333956948
  H         3.4352598354       12.9309405232       24.9910831769
  C         4.6368350867       14.3378168648       24.0463253789
  C         2.3601528141        9.1857504232       20.2719465153
  C        -0.2714718355       10.8593854438       27.3342208113
  H         0.5501635255        9.1332109041       26.3189417251
  C        -0.6995519566       12.5844059519       28.4630909389
  H         5.4549062342       13.8112596663       24.5310516449
  H         4.5317792819       15.1978154146       24.6883968287
  C         5.1506632276       14.7509114747       22.6711787160
  C         2.3099198595        7.8169261524       20.0546074589
  C         2.6451958918       10.0565545096       19.0883618837
  C        -0.7105575219       10.1981996286       28.6253575156
  C        -0.8388196633       11.5132696540       29.3331157273
  S        -1.0075212342       14.0602527088       29.2693815339
  H         5.6662148345       15.6548286959       22.8828888272
  H         4.3226376779       15.0355484188       22.0840966259
  C         6.0316152121       13.7085028662       22.0107972113
  N         1.8855985456        6.8771628061       21.0282146159
  C         2.7164447824        7.2853959690       18.8783386015
  C         3.0329691070        9.4735601642       17.9262773520
  H         2.7929567533       11.1552988220       19.1935677983
  C         0.4108699772        9.4093082663       29.3288278674
  C        -1.9399169100        9.3162506283       28.4924673169
  C        -1.1793972122       11.9293276721       30.6221700605
  C        -1.3046131277       13.2283422702       30.7600449876
  H         7.0174081240       14.1553092080       22.0640385213
  H         6.0878387805       12.8275750308       22.5823798958
  C         5.7152847985       13.3943968813       20.5045686879
  S         1.8487455213        5.4037431344       20.3209935984
  N         2.5585567414        5.9205175173       18.9659382222
  C         3.0489616350        7.9964767847       17.7003474580
  H         3.0725378554       10.1369153713       17.1058910642
  H         0.5864132700        8.5533123926       28.6675970696
  H        -0.0656169199        8.8103152264       30.0618838876
  C         1.7955560099       10.0177100962       29.6869465007
  H        -1.8146687195        8.6057962214       27.6791301125
  H        -2.0638997404        8.6480938170       29.3259230008
  C        -3.2183058182       10.1341280209       28.1066074553
  H        -1.3468421912       11.1258549467       31.3177667633
  C        -1.7522751242       13.8892997061       32.0077695579
  H         5.0382061978       14.0827287893       20.0188957616
  H         5.1826285342       12.4459600354       20.7011308004
  C         7.0147991700       13.0977805895       19.7917884736
  C         3.3144279249        7.3175706888       16.4710598016
  H         2.3822811956       10.3082369497       28.7702608603
  H         1.6489836488       10.8964627470       30.2957668486
  C         2.7660590631        9.0747342833       30.3902361484
  H        -3.1116812122       10.9429722764       27.3541274826
  H        -3.5939384309       10.6478222462       28.9609482386
  C        -4.3134754726        9.1775509578       27.6122372854
  C        -1.8899139133       15.3098925780       32.1542363181
  C        -1.9181812344       13.1484666363       33.2571253977
  H         7.7234943509       13.8452111014       19.9823356912
  H         7.5761008786       12.1497812718       20.1473218944
  C         6.8800146111       13.1350564579       18.2456655152
  H         3.1802077721        6.2359315196       16.3910224730
  C         3.6437600256        7.8295917856       15.2038350869
  H         3.0371796196        8.1917060050       29.7185980833
  H         2.2785731821        8.6289115529       31.3010217338
  C         4.0189952999        9.7424226427       30.8227399760
  H        -3.8998422524        8.5675227673       26.7391598119
  H        -4.6531568535        8.4684015708       28.3769704363
  C        -5.5195243704        9.9859707272       27.1995556838
  N        -1.7116381684       16.2446949365       31.1232704751
  C        -2.1007066457       15.9168821482       33.3885146260
  C        -2.2481771614       13.7550981218       34.4508039039
  H        -1.9233841646       12.0743320656       33.1939138345
  H         6.8931166547       14.0654068383       17.8067695977
  H         7.7222886399       12.6048852024       17.8515124967
  H         6.0237322906       12.5534678192       17.8736185089
  S         3.9982936875        9.4254043782       14.7126534013
  C         3.6872325798        6.8703013473       14.1169151486
  H         4.2023595782       10.6619566850       30.3096549121
  H         3.8546571586       10.0777330911       31.8302529231
  C         5.3050685926        8.9646332630       30.8650549048
  H        -5.2241527364       10.9444606022       26.7394960248
  H        -6.0747782373       10.2112007781       28.0845572223
  C        -6.5027652780        9.3162425173       26.2941559790
  S        -1.7406017349       17.7714964725       31.7713604166
  N        -2.1512616886       17.3041768311       33.2491970448
  C        -2.3346069284       15.2783369762       34.5688272550
  H        -2.2577800213       13.0864529315       35.3391013005
  C         4.3269758528        8.8277150850       13.1173245979
  N         4.1293876125        7.4976989457       13.0327837973
  O         3.5038284997        5.6660085446       14.1623472736
  H         6.1279559417        9.6851290279       31.0991348654
  H         5.5040564550        8.6004689944       29.8554373681
  C         5.3040665289        7.9556508524       31.9710482313
  H        -5.9669567930        8.7890644018       25.5080469850
  H        -7.1941874347        8.7149243354       26.9305689543
  C        -7.2340973826       10.3583468831       25.4609450643
  C        -2.6170807859       16.0640367061       35.7294449426
  S         4.7202555098        9.7556642224       11.7128323936
  C         4.2154749789        6.7420213069       11.7913116225
  H         6.1367332402        8.1416133123       32.6531177507
  H         4.4773273234        8.0896522776       32.6280173149
  C         5.2802466710        6.5140022811       31.5518356917
  H        -6.5575960522       10.4529724674       24.5866743423
  H        -7.4158933466       11.2634461283       26.1216250754
  C        -8.5699944543        9.7847400631       24.9156950403
  H        -2.3671170253       17.1049323710       35.6297876207
  C        -3.1581930924       15.6590112253       36.9626679067
  H         4.9673042782        7.1477290159       11.0655512277
  H         4.6059764290        5.6828154600       11.9174748491
  C         2.7474456771        6.6671346241       11.1387982344
  H         4.4239529953        6.3670396553       30.9249239892
  H         5.0980469712        5.8873340050       32.4083206315
  C         6.5988104221        6.1067411586       30.8826133204
  H        -8.9887682110       10.4578101885       24.1798943237
  H        -8.5392674856        8.7391636183       24.4530597433
  C        -9.7183163560        9.8149552433       25.9977874361
  S        -3.8094107157       14.1861641689       37.3030175935
  C        -3.2254413729       16.6709463012       38.0779112857
  H         2.1915692255        5.7854523882       11.4752005276
  H         2.0914241739        7.5214556337       11.3967511168
  H         2.8079842468        6.5660024072       10.0508249966
  H         7.4430817237        6.2763678076       31.5090496785
  H         6.6583616299        6.4953989329       29.8634790131
  H         6.6212713591        5.0551951618       30.7882190088
  H        -9.6256499876       10.4652104248       26.8222508258
  H        -9.6478232638        8.9074692477       26.5385470348
  H       -10.7594770100        9.8799504520       25.6721190075
  C        -4.0450658658       14.7676184846       38.9428767920
  N        -3.8448610994       16.0935338829       39.1299276654
  O        -2.9028322972       17.8443889900       37.9343817372
  S        -4.8425922379       13.8915518799       40.1450209546
  C        -3.9779468711       16.7850583607       40.3793687902
  H        -4.5387410384       17.7063679736       40.2024403687
  H        -4.5471239418       16.1996116606       41.0716641741
  C        -2.5849431040       16.9167549556       41.0774567733
  H        -2.5058005253       17.9609503428       41.3812117268
  H        -2.6337594810       16.3455002419       42.0405390732
  H        -1.7601140072       16.7206749940       40.4612760294
