352
i=
  H         4.2003831426        1.2492191537       12.9143642271
  C         3.9812231187        2.2943980233       13.0161884612
  H         4.9476181096        2.7719485003       13.1105464845
  C         3.1211510535        2.8129965367       11.8395080138
  C         3.2529009779        2.4418805271       14.3017666281
  C         3.8377759173        2.9595157018       10.4791791648
  H         2.7225397615        3.8204113080       12.0110916282
  H         2.2592802252        2.1781371057       11.6363418518
  H         2.2882770236        2.0735405844       14.1478687562
  H         2.9948970321        3.5329837107       14.3908336087
  H         3.7973637604        2.0082322118       15.1567699583
  C         4.5518003039        1.7635650701        9.9962008213
  H         3.0916696296        3.1111265059        9.7473626583
  H         4.4130401465        3.9009368130       10.4399880051
  C         5.1773530114        1.9443473878        8.5856743067
  H         3.9214133116        0.8600527496       10.0460833074
  H         5.2918304790        1.5125964235       10.7426863788
  C         6.4417342192        2.8028931751        8.5980679309
  H         4.3926358919        2.3237007236        7.8900936300
  H         5.4495964725        0.9367098823        8.1411387743
  C         7.7763647332        2.0044108103        9.0153210717
  H         6.6029021389        3.3269239602        7.5864534422
  H         6.2627991077        3.5975863777        9.3151504756
  C         9.0610077105        2.8694753200        9.3092803788
  H         7.9506213739        1.3535664844        8.1347192619
  H         7.6153995760        1.3313228861        9.8294459284
  C         8.7810842248        4.1766590881        9.9328060653
  C         9.5344541808        3.5494759322        8.0232656090
  C        10.2119865992        2.0736525189       10.0761243617
  C         9.0278417652        5.3005736503        9.2029624544
  C         8.4533220437        4.5476174538       11.2572854376
  C         9.5256233625        4.9042438548        7.9938418786
  C        10.0731825348        2.9501446807        6.9445355943
  H         9.8420279829        1.6382582773       10.9848968864
  H        10.4849341486        1.3337164722        9.3920446380
  C        11.3839767746        2.9411579525       10.4784952505
  S         8.5200416433        6.8058060062        9.9711487113
  C         8.2512145208        5.8846105252       11.4116632732
  H         8.3227870745        3.7931402418       12.0118484837
  C         9.9270597818        5.6058065726        6.8573137141
  H         9.9624942884        1.8568656362        6.9350308170
  C        10.4452511337        3.5519215131        5.7883432046
  H        11.0100671981        3.7514811304       11.0756258736
  H        11.8321239596        3.2857268216        9.5700054382
  C        12.5222873377        2.2758993014       11.2737263199
  C         7.8066761839        6.5441500860       12.6929970331
  C        10.4008301428        4.9201290293        5.7190780990
  H         9.9055417941        6.6654964804        6.7757193747
  C        10.9469953981        3.1395188257        4.5619058823
  H        13.3645636910        2.9347828516       11.2885219964
  H        12.8304201310        1.3550016352       10.7722651283
  C        12.0091361245        1.8790263162       12.7301202494
  C         7.7142137472        7.9362905724       12.9181631628
  C         7.5384322766        5.7106583778       13.8822315202
  C        10.8883374826        5.5807913979        4.4923721675
  C        11.1654527522        4.2417616742        3.7362678892
  S        11.0853804143        1.6259806109        3.6889257153
  H        11.1738192322        2.5190335963       13.0487301362
  H        11.6317129288        0.8767799363       12.7989661641
  C        13.0682367982        1.9772898212       13.8301659271
  N         7.9714008410        8.9300612206       11.9447565705
  C         7.4302738999        8.4695359202       14.1896599297
  C         7.0465940877        6.2514428510       15.0585397315
  H         7.5506575774        4.6247380987       13.8317978461
  C        12.1342597990        6.4568137569        4.5350475478
  C         9.7758523984        6.3635358838        3.7108628894
  C        11.4179901912        3.8907923568        2.4175821333
  C        11.4345186890        2.5123059070        2.2873572113
  H        13.5361443455        3.0021829919       13.7916411675
  H        13.8587745573        1.2248867812       13.7299624390
  C        12.5583499487        1.6724300931       15.2613510908
  S         8.0826083429       10.3506459075       12.7077999869
  N         7.5179616460        9.8781205640       14.2003841143
  C         7.1024595718        7.6607938632       15.3148885948
  H         6.7612929940        5.5052596098       15.7679442089
  H        12.1307230028        6.8073122628        5.5641464187
  H        12.1665290672        7.3625271097        3.8744654526
  C        13.4465443732        5.6834423660        4.4490852851
  H         9.4718401981        7.1545166845        4.3609747878
  H        10.2816732670        6.9307204736        2.9379358475
  C         8.5764602110        5.4446110055        3.2880714811
  H        11.4738175310        4.5721587582        1.6018486343
  C        11.6713164708        1.7555600208        0.9910255962
  H        11.5352123635        2.0099902139       15.3367582702
  H        12.7811155250        0.6446102676       15.4852956698
  C        13.3579403404        2.3455245970       16.3809577166
  C         6.8749072024        8.3949065090       16.5108989808
  H        13.5137663120        4.9054824045        5.1933914287
  H        13.4465425707        5.1112728749        3.4642051308
  C        14.6696993474        6.6347873464        4.6145729656
  H         8.1992378663        5.0224294798        4.2458696497
  H         8.8983618641        4.6661798332        2.7015625537
  C         7.4426163771        6.2356575165        2.6368155967
  C        11.7459513815        0.3788123632        0.8788916457
  C        11.8414583184        2.5082853576       -0.2896687071
  H        13.0000772449        3.3863586690       16.4032187579
  H        14.4476793954        2.4651897347       16.2581402016
  C        13.3059259555        1.7076917047       17.7692941979
  H         6.9714303712        9.4497942061       16.4963223336
  C         6.6026646894        7.9956994675       17.8281557279
  H        14.5408186717        7.3947350367        5.4619248785
  H        14.8189961887        7.1050922162        3.6671568872
  C        16.0420489407        5.9103483012        4.9329277818
  H         7.2123615224        7.1153919376        3.2516611553
  H         7.8866372675        6.5239673263        1.7064020522
  C         6.1054555458        5.4995416108        2.4942276148
  N        11.6263658281       -0.5226437118        1.9663329217
  C        12.0071918610       -0.3119142064       -0.3250128731
  C        12.1015640431        1.8552680501       -1.4990309173
  H        11.8550753104        3.6197937199       -0.2393713126
  H        12.3864299964        1.0717311565       17.8517475438
  H        13.0503715041        2.5923327790       18.4382465153
  H        14.2395461834        1.1404037043       18.0510641738
  S         6.2408829861        6.3375750234       18.3460995790
  C         6.5412303425        8.9956463028       18.9604343534
  H        16.1773224431        4.9172713603        4.4774973734
  H        16.9049095761        6.4281394569        4.5938062248
  C        16.2468386323        5.9168679674        6.4544558949
  H         5.6034613122        5.2789336750        3.4323596018
  H         6.2623877851        4.6249045067        1.8911667881
  C         5.1505239695        6.2320453004        1.5582901249
  S        11.9162606395       -2.0598264815        1.3989217869
  N        12.0149614454       -1.6654893497       -0.1680158319
  C        12.2070230017        0.3647800374       -1.5863905738
  H        12.1303977047        2.4727060219       -2.4101379224
  C         6.1404874724        6.9963581211       19.9479517848
  N         6.1734546678        8.3738890126       20.0611543687
  O         6.5136820361       10.2134673588       18.7687140637
  H        16.1591243557        6.8209956636        6.9827387966
  H        15.4282693015        5.3177519111        6.8474112903
  C        17.5146443286        5.1255783472        6.7763480806
  H         5.7621329709        6.5394818111        0.6724982727
  H         4.2929481040        5.5985242161        1.3432309016
  C         4.5422164274        7.4201021164        2.2588279208
  C        12.5593288380       -0.4722424320       -2.6904494453
  S         5.9614339025        6.1219138938       21.5348012704
  C         6.1110288810        9.1547872758       21.3741064207
  H        17.3551256612        4.2675094957        7.5198135686
  H        17.8856073415        4.5537684019        5.9234761773
  C        18.7174854299        6.0759817774        7.2193970830
  H         5.1577808276        7.7806768620        3.1502557973
  H         3.6247832850        7.0871384223        2.7884070010
  C         4.3530471966        8.5674464637        1.3395136097
  H        12.2362566160       -1.5079320964       -2.5293423206
  C        12.9609561525       -0.3010596349       -3.9692045144
  H         5.4533536020        8.6111688159       21.9899526475
  H         5.6747807977       10.0952044865       21.1761647316
  C         7.5396430975        9.3722947523       21.9700121877
  H        19.0426755927        5.8313972161        8.2519366444
  H        18.3468425031        7.1529428575        7.2336709962
  C        19.8242521212        6.0491904344        6.1643011659
  H         5.2914959188        9.1231273516        1.3909524682
  H         4.2115574187        8.2379657880        0.3604985453
  C         3.1888530866        9.5310235195        1.7822747593
  S        13.3818463712        1.2120440634       -4.7125428168
  C        13.1028209358       -1.5129510629       -4.8660122159
  H         8.1333694797        9.9534426112       21.2670363390
  H         7.9973092327        8.4510864375       22.2176732528
  H         7.4329095114        9.9633637382       22.9168428356
  H        20.6975814573        6.5019797710        6.5541261237
  H        20.0552225541        5.0274334121        5.7367885968
  H        19.5196633152        6.5763192561        5.3175707940
  H         3.0567529645       10.3276674289        1.1039349742
  H         2.2917004544        9.0099223375        1.9462738155
  H         3.5124652159        9.9680278481        2.7318510607
  C        13.6508473775        0.2451075821       -6.1189842540
  N        13.6255308100       -1.0903091860       -6.0123398944
  O        12.6209278362       -2.6250500627       -4.6046631068
  S        14.2611706363        0.8819435271       -7.6247018560
  C        13.7290984816       -2.0010945526       -7.1469064590
  H        14.0134252789       -2.9078042254       -6.6532398204
  H        14.5294087275       -1.7089575443       -7.8424865641
  C        12.4455812297       -2.3248641018       -7.8860463422
  H        12.1909787653       -1.4955269136       -8.4972864689
  H        11.6350576267       -2.3808975853       -7.1886787841
  H        12.5786813937       -3.2195839149       -8.5449678371
  H        -3.5549162259       14.6251676347       16.5897466998
  C        -3.1967726527       13.5782907380       16.5203465358
  H        -4.0802148602       12.9355041343       16.7210770534
  C        -2.0317868584       13.3627839803       17.4179545909
  C        -2.7836367849       13.3819546222       15.0445776703
  C        -2.2760015586       14.0304888394       18.8093840859
  H        -2.0574120977       12.2843836423       17.6008032086
  H        -1.0923817063       13.6067350537       16.9747446965
  H        -2.2841330311       12.4387721902       14.9356270863
  H        -3.6812686711       13.3225905802       14.4100360768
  H        -2.2265043132       14.2198973837       14.5511489107
  C        -1.6558875145       13.1330173120       19.8696893079
  H        -3.4382248004       14.1467515202       18.8208227919
  H        -1.9518992569       15.0925210226       18.8209008441
  C        -2.1567117029       13.5348911189       21.3052636213
  H        -1.8857643423       12.0721396114       19.6159806983
  H        -0.5307861200       13.2856228147       19.8438153140
  C        -1.2077643249       12.9202002941       22.3535083633
  H        -3.1973917905       13.1528246409       21.3505943119
  H        -2.2974537704       14.6399268204       21.3764183632
  C        -0.0006027913       13.7833619790       22.6611431699
  H        -1.8087823413       12.8161432939       23.2522673613
  H        -0.8840904542       11.9083720952       22.0285837252
  C         1.1316583595       13.0370553472       23.4264568489
  H         0.3505289932       14.1764495294       21.6715724987
  H        -0.3104304596       14.6594562290       23.1172483492
  C         1.5202775086       11.6936982946       22.7436309076
  C         0.7029550261       12.4003125627       24.6572286866
  C         2.4022457691       13.8577129693       23.6318565911
  C         1.3776869886       10.5836782547       23.5528035018
  C         2.0647369386       11.3539240548       21.4902252559
  C         0.8084256487       11.0444738758       24.7531432719
  C         0.1509931300       13.0835642043       25.7157885985
  H         2.4844154089       14.6948357254       22.9594535603
  H         2.3464283641       14.3928673097       24.5675779659
  C         3.7414713571       13.0758347688       23.6373430852
  S         1.6617069797        9.1403505706       22.7570790989
  C         2.2432189480        9.9973830372       21.3641043981
  H         2.1451016974       12.0717141137       20.7847771313
  C         0.2697499305       10.4346100210       25.8453381930
  H         0.2700265830       14.1307879560       25.5677927244
  C        -0.2791178790       12.5140619350       26.8552917303
  H         3.8797414554       12.6565137807       22.6970347503
  H         3.7850056898       12.2433197466       24.2817962605
  C         4.8986816075       13.9668909219       23.9916741980
  C         2.7187335486        9.2456696994       20.1398593471
  C        -0.2661726671       11.1535916943       26.9634168661
  H         0.0182479018        9.3858757083       25.8645374337
  C        -0.6959230354       12.9358553658       28.0986945373
  H         5.5531061586       13.4876277583       24.8004018980
  H         4.5890337979       14.9450398296       24.3322937493
  C         5.7183246116       14.3195580698       22.7917359000
  C         2.6816544353        7.8858264270       19.8735012595
  C         3.1752698408       10.0502906877       18.9900059147
  C        -0.7952799545       10.4617161620       28.1514159102
  C        -0.9682544388       11.8371142836       28.8974066885
  S        -0.8347004219       14.4245831516       28.9281100039
  H         6.3116270679       15.1954571941       23.0242860871
  H         5.0827594802       14.5636842465       21.9942887136
  C         6.6058695050       13.1037708263       22.3754888368
  N         2.4555877057        6.8545970580       20.8389137197
  C         2.8535970627        7.3465268097       18.6183379251
  C         3.3679799564        9.6061753276       17.7222425755
  H         3.3969405484       11.1460259836       19.1772883699
  C         0.1640048040        9.6518547458       29.0148265329
  C        -2.1338184365        9.6306080890       27.8636832133
  C        -1.4933483824       12.2999381194       30.1151444358
  C        -1.4451731576       13.6618198885       30.3073282735
  H         7.6908127184       13.4253471641       22.3624479719
  H         6.5254860854       12.1858512809       22.9925881447
  C         6.3556901193       12.6948953871       20.9273695107
  S         2.3534660895        5.4549511122       20.0437250781
  N         2.6667769163        5.9506897644       18.5156525263
  C         3.2909557315        8.1373600081       17.5018059803
  H         3.6056147887       10.3568419840       16.9683471333
  H         0.5052176987        8.8214519321       28.4061444839
  H        -0.4369118644        9.1918488358       29.7766596084
  C         1.2884299179       10.4358536388       29.7404643213
  H        -1.8395116870        8.9626087957       27.0714985984
  H        -2.5210949293        9.0685678073       28.7037476297
  C        -3.2325937945       10.4225699950       27.3137529431
  H        -1.8243886850       11.5559806187       30.7850633566
  C        -1.7805845260       14.3847256890       31.5286122123
  H         5.4582868550       12.1214766755       20.9675295467
  H         7.1294378316       12.0230931010       20.5298992407
  C         6.3845532221       13.8694975581       20.0069991815
  C         3.5254029203        7.5510780863       16.2147369972
  H         1.5581283010       11.2613977218       29.0222695065
  H         0.8735570863       10.8793499784       30.7116717551
  C         2.4675430311        9.6351024930       30.0317080603
  H        -2.9739472067       10.8305478926       26.3950696560
  H        -3.5290222818       11.1836594485       28.0232892408
  C        -4.5032069033        9.6472784744       27.1048939798
  C        -1.7240344546       15.7981649272       31.6568112866
  C        -2.0645623535       13.6392162225       32.8064450190
  H         5.3485361729       14.0058467799       19.7433074923
  H         6.9324435357       14.6915042228       20.4999654596
  C         7.1115457829       13.5110421760       18.7072546312
  H         3.2886798238        6.4955712736       16.1906265661
  C         3.9064989010        8.0031941911       15.0003195419
  H         2.9553516713        9.4517045927       29.1136284252
  H         2.1842237219        8.6672801475       30.4720804063
  C         3.3336726545       10.3184284423       31.0668062515
  H        -4.1652532828        9.0036276677       26.3018507674
  H        -4.7680711322        9.0920839978       27.9998814347
  C        -5.6149124602       10.5766915839       26.7420547025
  N        -1.3948411346       16.6826990529       30.6640216672
  C        -2.0157941855       16.4475896476       32.8470004414
  C        -2.3589759907       14.3489574172       33.9993287389
  H        -2.3176636216       12.6520720348       32.7511302005
  H         7.1530670785       14.3560774867       18.0590839776
  H         8.1726718353       13.4194758915       18.8880814563
  H         6.7041258045       12.6679963486       18.1529019672
  S         4.0540261591        9.7080293394       14.5301343774
  C         4.0320903830        7.0272019576       13.8810862161
  H         3.3993693364       11.2859596020       30.5769114920
  H         2.8572080868       10.5014117642       31.9991017426
  C         4.7634396277        9.8501608947       31.1382567674
  H        -5.1344630734       11.2931440004       26.0206082297
  H        -5.9330271277       11.1888656291       27.5732225270
  C        -6.6616263883        9.8042520921       26.0324095566
  S        -1.4975284295       18.2088309283       31.1444964170
  N        -1.8445817422       17.8670610948       32.7319462605
  C        -2.3005185953       15.8055601236       34.0904536629
  H        -2.7512316028       13.7401487871       34.8601438711
  C         4.2611199841        9.1100126956       12.8696093919
  N         4.2586735805        7.7397768221       12.7511156601
  O         4.0397401470        5.7736288765       14.0323543738
  H         5.3941295162       10.4005428126       31.8790789736
  H         5.1287080786       10.1954221372       30.2398025124
  C         4.9112752290        8.3579675922       31.4519326166
  H        -6.3065411464        9.1226998509       25.2535931057
  H        -7.4011058106        9.2758027314       26.7737035693
  C        -7.5934458135       10.7030578097       25.2043728620
  C        -2.5953423200       16.5795588367       35.2750272376
  S         4.6024326727       10.0710165300       11.4564989558
  C         4.2937281966        7.0188307907       11.5396216066
  H         5.8785241601        8.2120968227       31.9013472634
  H         4.1961250877        8.1524667401       32.2463549600
  C         4.9208286662        7.4383248657       30.2765012350
  H        -6.9887082277       11.0476877691       24.3454119459
  H        -7.9853964180       11.5680778985       25.7268599971
  C        -8.7736974030        9.9220051319       24.6570608429
  H        -2.4611484675       17.6417201945       35.0957591837
  C        -2.9882038763       16.2202559421       36.5574877010
  H         4.8428661843        7.5747346803       10.7598448624
  H         4.9010585878        6.1158280710       11.4810698533
  C         2.9931048154        6.7012584350       10.9549177411
  H         5.4521114918        7.8986903196       29.4224522895
  H         3.8264956114        7.3411011184       30.0156395568
  C         5.5479831971        6.0733677148       30.3975740911
  H        -9.0140410828       10.2288264289       23.6460002903
  H        -8.5412369480        8.8568015142       24.5501069019
  C        -9.9754824975        9.9475645721       25.5912542529
  S        -3.4838596437       14.6761715741       37.1667556327
  C        -3.0440104044       17.2848062779       37.5938081617
  H         2.8303580224        5.6406570574       11.1153994692
  H         2.1844983841        7.2657501084       11.4109214732
  H         2.9507247392        6.8206083779        9.9173137901
  H         5.2677079068        5.5607454870       29.5260208589
  H         5.1431145695        5.6465258633       31.3421186844
  H         6.6389604505        6.0171038604       30.4287708758
  H        -9.7630456474        9.4692587994       26.5651609310
  H       -10.8175775788        9.3945114036       25.2066224224
  H       -10.2890870791       10.9650766255       25.8702148794
  C        -3.8091090665       15.4214066086       38.7124736208
  N        -3.6063136707       16.7810909161       38.7316011649
  O        -2.5706221120       18.4436156326       37.4319797697
  S        -4.6674006362       14.5881657155       40.0455977266
  C        -3.7659745439       17.5962777419       39.9668711004
  H        -4.0559142022       18.5937685948       39.6230571224
  H        -4.5831271253       17.3190545337       40.6096294150
  C        -2.4209110880       17.5218374334       40.7093339143
  H        -1.9285408525       18.5269945550       40.6764118170
  H        -2.4720369426       17.2508815407       41.7785102206
  H        -1.6695701997       16.8472658724       40.2522041145
