352
i=
  H         2.7111087461        3.5349369199       12.0451260141
  C         2.8561991104        2.5200515366       12.0780001862
  H         2.1012170203        2.1338443280       12.7975842819
  C         2.4705499456        1.9123398219       10.7739828317
  C         4.1955517180        2.2007739194       12.7120849299
  C         3.4462259656        2.2005043926        9.6086957336
  H         1.5482433340        2.2967738972       10.5096981184
  H         2.2441252323        0.8725142397       10.8334983981
  H         4.6516250872        1.4067644760       12.2240651017
  H         4.0240750463        1.9416019356       13.7346926744
  H         4.8637527143        3.0960805795       12.7500604871
  C         4.3033623159        1.0045453685        9.2303188395
  H         2.9196455902        2.4445557203        8.7356653061
  H         4.0538210911        3.0408798025        9.8072365965
  C         5.3034707748        1.3781937502        8.2508510968
  H         3.7886816300        0.1628440400        8.7268512344
  H         4.7663626901        0.5500979746       10.0500659277
  C         6.4366638176        2.2634091737        8.7468338612
  H         4.7117262000        1.9200851942        7.4904904020
  H         5.6227862940        0.4562655071        7.7934693351
  C         7.6700587721        1.4783701822        9.3615508067
  H         6.7413259929        2.9404339645        7.9446992650
  H         6.0997480714        3.0420231101        9.4199494590
  C         8.9034872602        2.4278154568        9.5144983638
  H         7.8609118123        0.5902245177        8.7352405583
  H         7.5451251027        1.1441769807       10.3896246647
  C         8.5492632951        3.7952556728       10.2301273517
  C         9.4065161123        3.2106271488        8.3105297608
  C        10.0204521806        1.7450456365       10.3041517245
  C         8.9115842166        4.9184934722        9.5021036414
  C         7.8642778309        4.1530240109       11.3758904766
  C         9.3861289858        4.5432560345        8.2483712076
  C         9.8632694396        2.6589756435        7.1145070018
  H         9.6334561718        1.1787514362       11.1806914985
  H        10.4308883567        0.9691874435        9.6157241577
  C        11.2135794325        2.5534520089       10.8637791344
  S         8.3659442612        6.3930900586       10.2607834827
  C         7.8011985384        5.5124951079       11.5924277054
  H         7.5019914516        3.4179329375       12.0940897477
  C         9.7728539168        5.2781401424        7.1228475972
  H         9.9326654874        1.5726742551        7.0301063837
  C        10.1646569080        3.3779468885        5.9652679498
  H        10.8770591508        3.5345837324       11.2457152775
  H        11.8512389153        2.7881646866       10.0451847966
  C        11.9944548363        1.7881050215       11.7730134471
  C         7.4029112809        6.2307943852       12.8573594526
  C        10.1429604592        4.7330490162        5.9286357263
  H         9.9032149950        6.3423183923        7.0644709478
  C        10.5055345716        3.0727868582        4.6368307762
  H        13.0286174052        2.0465010613       11.5077276615
  H        12.0677099588        0.8707881465       11.3120834347
  C        11.4656059432        1.7369160703       13.2240988450
  C         7.3962295361        7.6596398617       13.0480699267
  C         6.9937794138        5.4404459886       14.0824443830
  C        10.5068745665        5.4605268618        4.6755975350
  C        10.7027920651        4.1825280119        3.8328430673
  S        10.8925969121        1.5935006473        3.8679574369
  H        10.8839686931        2.5633418935       13.5532578379
  H        10.7136094604        0.9077460471       13.1619320394
  C        12.5436818962        1.8078210827       14.3556292495
  N         7.7307333359        8.6216903488       12.1014297147
  C         7.0935721026        8.2756311091       14.2203731675
  C         6.7748555409        6.0622809766       15.2868946818
  H         6.8684632771        4.3181378561       14.0716535366
  C        11.8357889960        6.2076801734        4.8333309133
  C         9.2518329051        6.3097314488        4.1556764701
  C        11.2383683796        3.7980812182        2.5531606286
  C        11.3363943483        2.4629855268        2.4227955830
  H        13.2718040539        2.5597276263       14.0943391579
  H        13.1108632694        0.8785027190       14.5343054527
  C        12.0560890426        2.3252408356       15.7515167555
  S         7.5424476462       10.0978985168       12.6471766698
  N         7.2639342889        9.6600915376       14.1693157176
  C         6.8741296625        7.5521297886       15.4110874383
  H         6.5310079517        5.3820838022       16.1119944881
  H        11.7561875547        7.1865932474        5.3530069098
  H        12.1116852430        6.5248690373        3.8308118517
  C        13.0946587677        5.4038140681        5.2549281377
  H         8.9454896415        7.0526847130        4.8678716747
  H         9.4470728184        6.8624696083        3.2813730364
  C         8.0556377290        5.4852093532        3.8026715049
  H        11.6242445368        4.5127662587        1.8758090566
  C        11.8180893349        1.7903915211        1.1533864000
  H        12.1040788692        3.4103684327       15.7051239426
  H        11.0413495710        1.9812636802       15.9057330554
  C        12.9572258971        1.8948327492       16.8844627946
  C         6.6100538525        8.2347094176       16.6131695982
  H        12.9004336875        4.7249799246        6.0723272239
  H        13.3047738471        4.7663837736        4.3799604451
  C        14.2765866937        6.2884761263        5.4490419992
  H         7.6346055588        5.1226014060        4.6950812938
  H         8.2838378344        4.5295808638        3.2809309877
  C         6.9480248421        6.1885333986        3.0791290126
  C        11.9708104310        0.3783840634        0.9673699453
  C        12.1724505611        2.5926602692       -0.0263277212
  H        13.9911352773        1.9580647749       16.4859315249
  H        12.9921706451        0.7782541188       16.9597755927
  C        12.7353217758        2.4484156704       18.2986522470
  H         7.0676734875        9.2408787964       16.6622057268
  C         6.2296231394        7.9807341705       17.8818597218
  H        14.2428378817        6.6855638052        6.4633223105
  H        14.3402119979        7.1591058325        4.7583946836
  C        15.5429214640        5.4264135715        5.5579906260
  H         5.9872062599        6.0112194680        3.6304743371
  H         7.0463243713        7.2899595181        3.0421502321
  C         6.7736393810        5.8420509590        1.6127657006
  N        11.6040564008       -0.5580515427        1.9155488703
  C        12.1941773614       -0.2673704267       -0.2499143109
  C        12.5437579931        1.9556271728       -1.1769082012
  H        12.1236196484        3.6952561774       -0.0406397971
  H        13.7455093470        2.6938908796       18.7498111418
  H        12.2901072324        1.6192007691       18.7827342064
  H        12.0749085137        3.3105035454       18.3681317146
  S         5.9015864075        6.4812627393       18.6208160050
  C         6.1443111491        9.1556897802       18.8245111386
  H        15.2344069525        4.5201725654        6.0466553538
  H        15.9224860360        5.1228465224        4.6125100168
  C        16.6992959237        6.2243564770        6.2273237865
  H         7.1895309666        4.8903972986        1.4023387857
  H         7.3077300116        6.6570251672        1.0939587489
  C         5.2325014277        5.8180016874        1.2477280981
  S        11.5856314259       -2.0086898531        1.1679389180
  N        12.1619488427       -1.6628365639       -0.2676916634
  C        12.4760018492        0.4990363760       -1.4061626829
  H        12.9823179045        2.5074916266       -2.0064946567
  C         5.7561058662        7.3320487063       20.1501697752
  N         5.8393493787        8.7168979712       20.0868721196
  O         6.3667751169       10.3399797309       18.5184698015
  H        17.2619665434        6.7131782974        5.4581425735
  H        16.3091576599        7.0501100733        6.8772178209
  C        17.6284599848        5.2940390426        7.0597256451
  H         5.0888664876        5.6042688229        0.2041266954
  H         4.7642760937        5.0267006717        1.7813952596
  C         4.4697593731        7.1702345557        1.4959502926
  C        12.7877043833       -0.1610159990       -2.6081582346
  S         5.4220413284        6.5600160166       21.7012651302
  C         5.7127911499        9.6051754164       21.2384895081
  H        17.0405119652        4.9824680946        7.8910137003
  H        17.9544758687        4.4815022099        6.3743895304
  C        18.8245519370        6.0152681116        7.7207053113
  H         4.8830804110        7.6738910913        2.4134064819
  H         3.4428863694        7.0378944342        1.7942905397
  C         4.4336461150        8.2036078502        0.2823561444
  H        12.6770695608       -1.2506629309       -2.6420676181
  C        13.2025796669        0.3078432260       -3.8527956370
  H         5.2328203049        9.1298485253       22.0799819646
  H         5.0484441337       10.4057214160       20.9857303852
  C         7.0864086981       10.0461187062       21.7148664551
  H        19.0125470238        5.3469751019        8.5818190972
  H        18.6053660883        6.9846545234        8.2281239700
  C        19.9544932212        6.0107931953        6.7150557791
  H         5.4899936734        8.2381504801       -0.0569992359
  H         3.9932099216        7.7266483953       -0.5083651046
  C         3.8099114300        9.4984001095        0.5688261369
  S        13.8787412911        1.8593259944       -4.1980487936
  C        13.2920662371       -0.6634878455       -4.9389808703
  H         7.4981073212       10.7074688379       20.9943519335
  H         7.7347057518        9.2165249716       21.6402261698
  H         7.1857306295       10.5867113417       22.7362896749
  H        19.7513680571        6.4853787778        5.8089829370
  H        20.8753788573        6.4330911490        7.0985985834
  H        20.2378013126        4.9695296310        6.4418615689
  H         4.5353295548       10.3722723569        0.5673608800
  H         3.1284032153        9.7928814419       -0.1794261610
  H         3.2476264684        9.4123214562        1.4753998152
  C        14.2944579543        1.2205604768       -5.7482484415
  N        13.9273809837       -0.1158476113       -5.9246122441
  O        13.0190260030       -1.8400568978       -4.7859044004
  S        15.1415341798        2.0121818953       -7.0306694130
  C        14.0959209236       -0.8693021367       -7.1913073637
  H        14.2908887095       -1.9172543433       -7.0012146420
  H        14.9108972301       -0.5281894848       -7.7863977301
  C        12.8967091783       -0.7582236112       -8.0679512453
  H        12.5281280817       -1.7602607843       -8.2656553303
  H        13.1676970411       -0.1474079204       -8.8932150540
  H        12.1293584657       -0.2278332106       -7.5509502754
  H        -2.6080108830       12.3462758719       16.7241206307
  C        -2.6400825125       13.2524570642       16.2131400031
  H        -1.5985340149       13.4166849534       15.8324242065
  C        -3.0420238840       14.2543200347       17.3772312322
  C        -3.6993562306       13.2045585064       15.0911436358
  C        -3.6306303752       13.5298424467       18.6178823563
  H        -2.2163257178       14.8562881579       17.7174632197
  H        -3.8090983185       14.9603389721       17.0156218356
  H        -4.6210043766       13.5511461128       15.5864002372
  H        -3.5396247740       13.9284133888       14.3200561466
  H        -3.9114143342       12.2709200507       14.6630296512
  C        -2.5739962216       12.9443498516       19.5731587179
  H        -4.4177982702       12.8270638808       18.4275786584
  H        -4.1920029531       14.2353091541       19.1848490541
  C        -3.0567304025       12.9932977740       21.0398193993
  H        -2.2883121567       11.9191866909       19.3311535627
  H        -1.6549822258       13.5237753731       19.4402075921
  C        -2.0833006430       12.4582222687       22.0250361054
  H        -3.9915794185       12.5238110698       21.2033512654
  H        -3.3727160660       14.0034306820       21.2516763957
  C        -0.9458403633       13.4198196510       22.2915378720
  H        -2.5512605787       12.3676506704       22.9994405193
  H        -1.7353090035       11.4327663100       21.7290796405
  C         0.2860362115       12.8516689947       23.0486531050
  H        -0.5804605765       13.9666578645       21.4311759535
  H        -1.3190353123       14.1631206082       22.9176863967
  C         0.7112221764       11.5117596186       22.3234394651
  C         0.0198364821       12.1012916872       24.3029087784
  C         1.5110282512       13.7975061338       23.2034148835
  C         0.5838240596       10.4177738889       23.1353795270
  C         1.2736120962       11.1909817785       21.0945833029
  C         0.1327091450       10.7436027943       24.3943063325
  C        -0.4489711109       12.6812081592       25.4954608444
  H         1.6640133992       14.3191388058       22.2380620522
  H         1.2952071211       14.5182004109       23.9630854100
  C         2.8291793482       13.1412583700       23.6490491897
  S         0.9636195383        8.8900917824       22.4776141391
  C         1.4769511627        9.8130509494       21.0012874016
  H         1.5621437254       12.0509394330       20.5754189962
  C        -0.0449668532       10.0541218704       25.5502800463
  H        -0.4904468024       13.7610746712       25.5727674244
  C        -0.5588980751       11.9751572639       26.6884650575
  H         3.2411953432       12.4261671394       22.9314286536
  H         2.4819153169       12.6754099350       24.5603372045
  C         4.0066475168       14.0925348035       24.0723049520
  C         2.1645167667        9.1081132975       19.8531561190
  C        -0.4493192171       10.6396249933       26.7945726672
  H         0.0595355918        8.9796807716       25.5645448574
  C        -0.7772362163       12.3668281959       27.9847684052
  H         4.7405400504       13.6018691939       24.6561217914
  H         3.4205338279       14.7127840823       24.6987684401
  C         4.6051208758       14.9325391538       22.9652803654
  C         2.3080859886        7.7015575887       19.7629246054
  C         2.7232088484        9.8743051904       18.6878154997
  C        -0.7282921868        9.8850033711       28.0547503626
  C        -0.9752836248       11.2513815991       28.7701284299
  S        -1.1491064880       13.8974278048       28.7253870264
  H         5.3517221085       15.4838415184       23.5386656364
  H         3.7827876743       15.5549199089       22.5850676173
  C         5.2443298137       14.0396998670       21.9024736466
  N         1.9816530079        6.7159493778       20.7423401533
  C         2.5363194419        7.1065327167       18.6021871394
  C         3.1203331233        9.2535021616       17.5719052547
  H         2.9829797112       10.9519203832       18.7813984535
  C         0.4176361479        9.1435806548       28.7781334151
  C        -1.9630514245        8.9918883313       27.8656025902
  C        -1.4983491914       11.6592231275       30.0366559004
  C        -1.5282795526       13.0146546381       30.1830977757
  H         6.2043751802       14.3766685476       21.5665294172
  H         5.4333551293       13.0422713281       22.4449674471
  C         4.4394381277       13.8550665154       20.5947564389
  S         2.0448838395        5.1988663933       20.0758441776
  N         2.3765750018        5.7173590564       18.5816065069
  C         2.9323594483        7.7966072475       17.3987567720
  H         3.6767948473        9.8576839666       16.8735322225
  H         0.5577342241        8.2279171696       28.1747457420
  H         0.1900337400        8.8608454298       29.8610103093
  C         1.7251395894        9.9924199530       28.8638094502
  H        -1.7897675902        8.1324341677       27.1520621472
  H        -2.1012925118        8.5403428723       28.8310461781
  C        -3.2426147997        9.6996351513       27.4981290598
  H        -1.8324602944       10.9416805873       30.7674424366
  C        -1.7778003185       13.7347760193       31.4514352641
  H         3.9702780079       14.7700780710       20.2696744716
  H         3.6655695086       13.0908436227       20.6009591889
  C         5.3130645825       13.2214211811       19.4434644055
  C         3.1127141509        7.0381225685       16.1983119320
  H         2.0492757803       10.3604968969       27.8782135048
  H         1.6353001698       10.8432371259       29.5609260346
  C         2.8261508099        9.1467351605       29.4938952152
  H        -3.0653037647       10.6302407452       26.8920739556
  H        -3.5675493909       10.1367275735       28.4589425877
  C        -4.3039558648        8.6930858385       26.9967035642
  C        -1.9449952748       15.1136378817       31.6473824884
  C        -2.0151732132       12.9759576581       32.6887356150
  H         4.9877597720       12.1350601688       19.4510537439
  H         5.0705461075       13.6510735736       18.4787044142
  C         6.8355316702       13.3051379636       19.4753694959
  H         3.2290270254        5.9912520070       16.4097056362
  C         3.2839595331        7.3914258852       14.8935967561
  H         3.0894647670        8.2939405089       28.7845459767
  H         2.4975485373        8.7450363342       30.4104951673
  C         4.0810475778        9.9602273149       29.6903826537
  H        -3.9923482698        8.2373083706       26.0705685685
  H        -4.3759200961        7.7593777972       27.6239994129
  C        -5.6360296142        9.1969254298       26.8097798186
  N        -1.7562094074       16.0405516542       30.6097538100
  C        -2.3330188309       15.7406288004       32.8277160309
  C        -2.2601306981       13.5617328244       33.9359188007
  H        -1.7495530477       11.9371246587       32.6434283999
  H         7.2205928945       12.7074165246       18.7227661216
  H         7.1410801509       14.3735229157       19.5056065775
  H         7.1468723396       12.7513738127       20.4102863032
  S         3.5240687195        9.0390715930       14.2507832623
  C         3.4875223971        6.3592763102       13.8991061050
  H         4.1037485897       10.7829835203       28.9395889149
  H         3.9323995304       10.5156816043       30.6252262222
  C         5.4050638559        9.1422700106       29.6531215734
  H        -5.8177246953        9.9914421744       27.5762901991
  H        -6.2559173469        8.3320217259       26.8913281473
  C        -5.8069081206        9.7305937540       25.3206639743
  S        -1.8454610644       17.5254641137       31.3218998374
  N        -2.2848850829       17.1033934844       32.8270907940
  C        -2.4583205514       14.9989091981       34.0495993843
  H        -2.0820121555       13.0375663884       34.8600790824
  C         4.0535354623        8.2863052636       12.7256649912
  N         3.8638378570        6.9454134690       12.7172599270
  O         3.3306998718        5.1559886161       14.1497540503
  H         6.1933740707        9.8104927523       29.8251456917
  H         5.5860679101        8.7213104112       28.6736336541
  C         5.5647246159        8.0961081530       30.7699380686
  H        -4.8800707649       10.2244694633       25.0089577318
  H        -5.9807022288        8.9156808999       24.6921391502
  C        -6.9626636478       10.7377456191       25.1154143505
  C        -2.8043774351       15.7563465999       35.2350854079
  S         4.1715235152        9.2295920190       11.2360203267
  C         3.6996449764        6.1672723134       11.4493395091
  H         6.1800893579        8.4387182800       31.6155976681
  H         4.5380617150        7.8613083414       31.0450735352
  C         6.1734994201        6.7722665819       30.2689200491
  H        -6.7649338134       11.3649638280       24.2986189437
  H        -7.0296668690       11.4212743504       25.9909678465
  C        -8.2424412430        9.8920064344       24.9715883754
  H        -2.9302721785       16.8384936417       35.2198014939
  C        -3.3110053030       15.2415255353       36.4505640248
  H         4.2302040031        6.6295595000       10.6758620969
  H         4.1407051041        5.2093952337       11.7179899074
  C         2.2432679388        6.0373338676       11.0777171067
  H         7.0567011449        7.0797943633       29.6878217459
  H         5.4638059150        6.2975109946       29.6179532426
  C         6.5280016828        5.8279712995       31.3682168541
  H        -8.9845254089       10.4658404352       24.4725215926
  H        -8.0525021655        8.9632264579       24.4756504287
  C        -8.8951183898        9.9006045483       26.3742639306
  S        -3.7312463378       13.6151901971       36.8978895501
  C        -3.4673100982       16.2699576900       37.5090229409
  H         2.0016692075        5.0479289188       10.6469777555
  H         1.6131737293        6.1434166110       11.9009353009
  H         2.0340927801        6.8017015544       10.3762870450
  H         7.1370786035        4.9298154819       30.9828670883
  H         5.5549395013        5.5925845979       31.8864053746
  H         7.1808090823        6.3404628242       32.1544541303
  H        -9.0620427390       10.9138632252       26.6963524737
  H        -8.3159372145        9.3974327097       27.1968834277
  H        -9.8632482885        9.4652208524       26.1869530299
  C        -4.1891491008       14.2763625321       38.5246838770
  N        -3.9600432888       15.6139517476       38.6456441123
  O        -3.2079283470       17.4241347830       37.3179094092
  S        -4.8455626498       13.4013747521       39.9694349400
  C        -4.2301026107       16.3992734607       39.8287766762
  H        -4.6695772664       17.3938990266       39.5763180348
  H        -4.8574438303       15.9109049322       40.6389725348
  C        -2.9196196305       16.7477844731       40.5455178316
  H        -3.0579529046       17.3020073428       41.4818981340
  H        -2.4725499841       15.7661424985       40.7472946792
  H        -2.1718073812       17.1540788996       39.8733361942
