352
i=
  H         4.2282303552        1.3551780057       12.5554258777
  C         3.5364704085        2.1243742306       12.7404454056
  H         4.0932198877        3.0193837807       12.9019424194
  C         2.7775033426        2.3847906341       11.4132246920
  C         2.7546605020        1.8548364420       13.9700009268
  C         3.5355332037        2.8113403674       10.1234979518
  H         2.1011727853        3.2091116807       11.7000011584
  H         2.2138629835        1.4892193290       11.1399207064
  H         2.1925468107        0.8918970719       13.9076692716
  H         1.9550619693        2.5052115032       14.0750551427
  H         3.2643843453        1.8855586976       14.9239255091
  C         4.1478733742        1.5412564978        9.4519762827
  H         2.6830723160        3.1315321731        9.5259389153
  H         4.2060713436        3.6002087883       10.2847476074
  C         4.7845459096        1.8949826558        8.1027284258
  H         3.3183263331        0.8360355299        9.2543056717
  H         4.7374516406        0.9390134412       10.1466465310
  C         6.1037149107        2.7061983016        8.1244207184
  H         4.0044036162        2.3160682663        7.4126478341
  H         5.0181682695        0.9883366126        7.5805260897
  C         7.3118983200        1.7977153830        8.5892742412
  H         6.3292036223        3.0799101447        7.0903104364
  H         5.9269837191        3.4935778236        8.7813408279
  C         8.6843214596        2.5795943871        8.8014176544
  H         7.5832483227        1.0078108192        7.8012673120
  H         6.9774581770        1.4489258558        9.5837352246
  C         8.2763992498        3.8821365074        9.5005752346
  C         9.0876950554        3.2312747321        7.5166388114
  C         9.8299245855        1.9375750729        9.5512181150
  C         8.5048165866        4.9617751407        8.7024210384
  C         7.7115740139        4.2452427633       10.7679703189
  C         9.0024035492        4.5412838943        7.4567575870
  C         9.7556490310        2.6988707050        6.3840665187
  H         9.5682955178        1.2897548850       10.4224076875
  H        10.3024402514        1.2514761671        8.9167953091
  C        10.9667636366        2.7912752235        9.8168988753
  S         8.1164877112        6.4520611021        9.4902896480
  C         7.6987931407        5.6320387507       10.9428633068
  H         7.5931116852        3.4693903354       11.5078702237
  C         9.4115276241        5.2110525779        6.3383746194
  H         9.8792374143        1.6554358284        6.4437236993
  C        10.0465308764        3.4013914833        5.2352003383
  H        10.7062889527        3.7753855662       10.2073695845
  H        11.5807768397        2.9211879976        8.9451722815
  C        11.8175274387        2.2104139895       10.8850949064
  C         7.2409082027        6.2531947426       12.2492200326
  C        10.0048458769        4.7296108414        5.2089857725
  H         9.3853138794        6.2798428125        6.3219925076
  C        10.5653698282        3.0902328958        4.0313201743
  H        12.7451521615        2.8305755172       10.8703998503
  H        12.1036998742        1.2190427253       10.5617520757
  C        11.2860685464        2.2392645854       12.3317334071
  C         7.4843139259        7.5877690820       12.5635217998
  C         6.7580565726        5.3393023313       13.3908439812
  C        10.4876254961        5.5335186629        3.9706620028
  C        10.7738345918        4.2359671239        3.2239161509
  S        10.8576396079        1.5831059927        3.2940030979
  H        10.9723723287        3.2729522887       12.5789066846
  H        10.4822522276        1.6380978864       12.4049086504
  C        12.4011708578        1.9037743447       13.2881183866
  N         7.6766921795        8.5792076274       11.6226864323
  C         7.2554158876        8.1068447137       13.8492583057
  C         6.5697844186        5.8954112598       14.6630113865
  H         6.6191534471        4.2532336392       13.2470419208
  C        11.7963246094        6.2738828957        4.2530430602
  C         9.4666203038        6.4378566635        3.2489040279
  C        11.2343036074        3.7723680998        1.9242962686
  C        11.2768968039        2.3826070106        1.7984297881
  H        13.1918658348        2.6111844958       13.1985460723
  H        12.8664159442        0.9878751311       13.2290862760
  C        11.9406720063        1.8957239500       14.7347683805
  S         7.8377299439       10.0353286069       12.3426508174
  N         7.5156853497        9.5006667337       13.9054333895
  C         6.7584120515        7.3284274890       14.9271400027
  H         6.2027055591        5.2622127741       15.4645018405
  H        11.5155013962        7.0648428247        4.9471458219
  H        12.1396527187        6.8160127462        3.3540827181
  C        12.9098111254        5.4051292409        4.7427008795
  H         9.3299563720        7.3489521672        3.8471824479
  H         9.8841648986        6.8406304788        2.2959762961
  C         8.1730098829        5.7848618347        2.7735938091
  H        11.5447603521        4.5353397335        1.1842013677
  C        11.5469416639        1.6479158347        0.5825077667
  H        11.3456092936        2.7532549660       14.9878362055
  H        11.2592388122        1.0422100398       14.9418213211
  C        12.9991598519        1.7033196826       15.7935896831
  C         6.4863814659        8.0340326251       16.1625328547
  H        12.6498616393        4.8207884892        5.6135228098
  H        13.2296360191        4.6186377148        3.9607446038
  C        14.2594294950        6.1859911189        4.9566312539
  H         7.6895119902        5.2409721480        3.6020362173
  H         8.3508166275        4.9656749053        2.1018759989
  C         7.0970103838        6.7748591827        2.2302212550
  C        11.7787150027        0.2928872230        0.3860039067
  C        11.6665918197        2.4874526075       -0.6443448657
  H        13.8407924754        2.3266126716       15.6184556674
  H        13.2829278341        0.6370656799       15.8325310674
  C        12.5102009385        2.2839875398       17.1578568951
  H         6.7923840203        9.0748139673       16.0960063532
  C         6.2476442317        7.5773297436       17.4194691639
  H        14.0480515962        7.1022695960        5.5331617155
  H        14.7215410247        6.6524248563        4.0986147734
  C        15.3711294569        5.3036983061        5.4957657932
  H         6.8192564908        7.5253112337        2.9523511402
  H         7.5282135662        7.4116425229        1.4856398955
  C         5.9136258501        5.8939435467        1.7563949259
  N        11.7546307568       -0.6399172644        1.4005234253
  C        12.1696700562       -0.3006712593       -0.8384498816
  C        12.0959346743        1.9193614151       -1.8591573464
  H        11.3655412843        3.5515715575       -0.6733835645
  H        12.3856850995        3.3920814898       17.2023634601
  H        13.3340659443        2.2718577616       17.8961553019
  H        11.5991566246        1.8605426814       17.5821977182
  S         6.1072931964        5.9851271790       17.9546955807
  C         6.1811581872        8.6213490035       18.5163310673
  H        14.9292479574        4.4475618484        5.9004458938
  H        15.8600804637        4.9264677903        4.5589630558
  C        16.3461649488        6.1390304964        6.3820074117
  H         5.5475241627        5.0830169421        2.3875946172
  H         6.3151602549        5.3422317054        0.9077984082
  C         4.8596359666        6.7894669937        1.2824662684
  S        11.8134974570       -2.1625623968        0.7384999842
  N        12.1161367091       -1.6978408763       -0.8034969222
  C        12.4063561072        0.4517922069       -1.9945881529
  H        12.1746469267        2.5614285837       -2.7338676263
  C         5.7048586603        6.7294064665       19.5467099437
  N         5.8156006765        8.0682975135       19.6471073697
  O         6.2986777411        9.8346327209       18.3581015515
  H        16.8064011064        6.8387225634        5.7074405312
  H        15.9075162779        6.7541553588        7.2134915785
  C        17.4400297643        5.2167582352        6.9334053576
  H         5.4367909254        7.5121638506        0.6916432141
  H         4.2699193616        6.3244795104        0.4728580317
  C         4.0898273916        7.4261317511        2.4046322771
  C        12.6680304103       -0.2337034063       -3.1668173509
  S         5.3148301552        5.7880381301       20.9534307283
  C         5.8229984128        8.8062389838       20.8777750567
  H        17.1039023072        4.7244839882        7.8161097222
  H        17.6403533926        4.2680803189        6.3548609757
  C        18.8322330678        5.8683720363        7.0735645746
  H         4.6610649965        7.5906183384        3.2938170133
  H         3.2779894604        6.7317157684        2.7383935723
  C         3.4020842458        8.8225758031        2.0974103841
  H        12.3625430992       -1.2905428829       -3.2510475169
  C        13.1653667811        0.1644041927       -4.3527404623
  H         5.0512072591        8.4437767781       21.5556905465
  H         5.3920025822        9.7452854752       20.8142202225
  C         7.2877193090        8.7935896284       21.5250524982
  H        19.4108633577        5.3000202730        7.7844333143
  H        18.6761015061        6.7709244369        7.5332062390
  C        19.6628014467        6.0746091811        5.8057455939
  H         2.3281284557        8.7509305504        2.3573399130
  H         3.6877523737        9.5925176934        2.8204804373
  C         3.6072104002        9.3803981667        0.6929429514
  S        13.7376727629        1.7365787275       -4.7257681186
  C        13.2804481348       -0.8010394066       -5.4894908365
  H         7.5540159381        7.8616690739       21.8751963532
  H         7.4188674965        9.5278099030       22.4101152594
  H         8.0358695012        8.9281633705       20.7758583932
  H        19.3640197571        5.2403295974        5.1546657345
  H        19.5627975831        6.9841779919        5.3500359247
  H        20.7171294955        5.9320465907        6.1104042790
  H         3.2306737746       10.4010800465        0.7019778856
  H         4.5876511334        9.5073402204        0.3190999690
  H         3.0972718262        8.8431124050       -0.0683832518
  C        14.2811722351        1.0802040022       -6.3087118308
  N        13.9829779322       -0.2473137543       -6.4916537377
  O        12.8140502414       -1.9276338329       -5.4273072790
  S        15.3048143151        1.9451324649       -7.4567463381
  C        14.0408390608       -0.8898703685       -7.7513880175
  H        14.3807937438       -1.9491587982       -7.6021308747
  H        14.8770379208       -0.4747293932       -8.3035912655
  C        12.6721888191       -0.8108083859       -8.4166503757
  H        12.1093984126        0.0363007303       -8.1180432722
  H        12.1223079054       -1.7070385745       -8.1710165171
  H        12.8089799926       -0.6401160575       -9.4517779823
  H        -4.2255688910       13.7368168574       16.4619484002
  C        -3.1688761632       13.5009225933       16.3249280640
  H        -2.8999402183       12.4895743538       16.3702464334
  C        -2.4664470801       14.1053987577       17.5645466388
  C        -2.7336113064       14.1745850332       15.0109299445
  C        -2.9614660680       13.5620350930       18.9351429635
  H        -1.4210929284       13.9084979194       17.5235995989
  H        -2.5869461305       15.1399933119       17.5197523153
  H        -1.9720848855       13.8033945240       14.3591360107
  H        -3.5240165503       14.2531768787       14.3283917180
  H        -2.5812392620       15.2232526586       15.0833223567
  C        -1.7690794022       13.3723739416       19.8843585237
  H        -3.5578338974       12.7019295300       18.8964961902
  H        -3.6492126019       14.3195276395       19.3348515629
  C        -2.2529051273       13.3952190283       21.3408277162
  H        -1.2149834034       12.5158118105       19.6173737894
  H        -1.0712681851       14.2540165996       19.7641695515
  C        -1.2071290280       12.6203299222       22.2304969633
  H        -3.2660757038       12.9521806768       21.4854040860
  H        -2.2796921927       14.3922787226       21.6441934831
  C         0.0168417963       13.4420043901       22.5729351605
  H        -1.7756430811       12.5615708527       23.0899042441
  H        -0.8901054937       11.6565873030       21.8299798981
  C         1.1563356919       12.6617131010       23.3498926114
  H         0.3795817862       13.8118596200       21.6587609754
  H        -0.2835651492       14.3415174446       23.2015264550
  C         1.4985390733       11.3009249210       22.7352083006
  C         0.7104728866       11.9037422277       24.5380887930
  C         2.4419188864       13.5363163914       23.3851899945
  C         1.0758715957       10.1687827758       23.4375021898
  C         2.0321287001       10.9765730719       21.4342154411
  C         0.5610741982       10.5566460849       24.6361764571
  C         0.2961875848       12.5733966815       25.6888562456
  H         2.7717427487       13.7746691014       22.4200515909
  H         2.2391603941       14.5078970994       23.8555486885
  C         3.6447371662       12.9227958350       24.1497949197
  S         1.3626229097        8.6536620284       22.5750824285
  C         1.9942822639        9.5993439978       21.2240192309
  H         2.3548829834       11.7073887904       20.7347088152
  C         0.0010364583       10.0187871073       25.7386261234
  H         0.3418931080       13.7069385075       25.4861694605
  C        -0.1837881000       12.0307812736       26.8075573336
  H         4.0553481185       12.0362536467       23.6275175818
  H         3.3477170652       12.5340931826       25.1328376374
  C         4.7754113926       13.9408897610       24.4347325147
  C         2.4351530751        8.9133916365       19.9435616576
  C        -0.3368200912       10.7068584892       26.9371305268
  H        -0.2910612252        8.9798690087       25.8141780213
  C        -0.5426191009       12.4483113641       28.0816637974
  H         5.3394144886       13.4619621650       25.1967902509
  H         4.2839226993       14.7821307360       24.9102983091
  C         5.6360658779       14.3370890669       23.2145578165
  C         2.3291393896        7.4714898017       19.6836519172
  C         2.8782269006        9.7594704264       18.8341353912
  C        -0.7219280515       10.0564082328       28.1858800695
  C        -0.8216621556       11.3852130716       28.8855332672
  S        -0.8015125229       13.9183103488       28.8033040047
  H         6.3770440740       14.9960645567       23.7382362612
  H         5.0073473741       14.9581791532       22.5946993629
  C         6.5147913024       13.2616245541       22.5414855357
  N         2.0120680298        6.5461578674       20.6543403565
  C         2.6775517584        6.9821375690       18.4437133583
  C         3.1124946005        9.1888320409       17.5793239705
  H         2.8033510266       10.8701006229       18.8288480372
  C         0.2950899697        9.1997234510       28.9043252013
  C        -2.1000349084        9.3340751317       27.9375694277
  C        -1.0074553560       11.7424069215       30.2244213258
  C        -1.0937787834       13.1261491101       30.3573065502
  H         7.4230104294       13.7639198691       22.4465623118
  H         6.7820569090       12.5531199117       23.3470831530
  C         5.9725455192       12.5450615994       21.2172973512
  S         1.8277082421        5.1509271685       19.9036450242
  N         2.3524825759        5.5735357250       18.4445999266
  C         3.0058180697        7.7481891920       17.3201133761
  H         3.2872260507        9.8038530871       16.6981560801
  H         0.3885729866        8.2366322112       28.4802476418
  H        -0.0361650922        9.1007257266       29.9183669932
  C         1.7541190548        9.6860840307       28.9720320740
  H        -1.9805432300        8.4439438043       27.3075444851
  H        -2.3794227337        8.9275350674       28.9496566002
  C        -3.2733925750       10.1697785134       27.4711537857
  H        -1.1754178562       10.9708889288       30.9558184872
  C        -1.4138476934       13.9278546230       31.6022313633
  H         5.1048060751       12.0392113293       21.4983027873
  H         6.6948188183       11.8259019842       20.8634891822
  C         5.6482489668       13.4884567975       20.0261378566
  C         3.1646985064        7.1889876929       16.0204773184
  H         2.1646118347       10.0586084699       28.0137336819
  H         1.6798466206       10.4582806840       29.7162962241
  C         2.6020227830        8.6562263384       29.6132061651
  H        -3.1297059529       10.6766752143       26.5541265239
  H        -3.4634783228       10.9704635377       28.1428042730
  C        -4.5224371570        9.3460404746       27.2600647116
  C        -1.4259078916       15.3772360451       31.7009404596
  C        -1.7423812216       13.1460919927       32.8217811107
  H         4.9493990588       13.0547133060       19.3190336576
  H         5.1032619344       14.2916686674       20.4595789334
  C         6.9778931624       13.8603290030       19.3373359157
  H         3.2241459527        6.1373697779       16.1251784109
  C         3.4796413359        7.6907802444       14.8004993037
  H         3.0649414201        8.1013790447       28.7995261355
  H         1.9855293786        8.0107614557       30.3191345762
  C         3.7564882191        9.3402991270       30.2729834622
  H        -4.3334550054        8.5801752947       26.4674855510
  H        -4.7139761923        8.8877534393       28.2247384877
  C        -5.6083301712       10.2867847558       26.6881534364
  N        -1.1878540387       16.2961681820       30.6677169860
  C        -1.9007096747       16.0260311015       32.7994851770
  C        -2.0999833035       13.8469845566       33.9773834362
  H        -1.7066579973       12.0921874698       32.7976235814
  H         6.8741061463       14.5318684544       18.4978029606
  H         7.7978531621       14.2130817243       19.9956183030
  H         7.4099208153       13.0059122757       18.8679347553
  S         3.6970915637        9.2901907828       14.2391418029
  C         3.4905636199        6.6582210214       13.7475338237
  H         3.8932563840       10.2853108611       29.7897599972
  H         3.4349786089        9.5697197300       31.3258931151
  C         4.9467842581        8.4356411987       30.4386315437
  H        -5.1466803596       11.1786380242       26.2698382232
  H        -6.2258861527       10.6725654691       27.5521628949
  C        -6.4735247005        9.6562623951       25.5790948534
  S        -1.4290953734       17.8090254589       31.1857450062
  N        -1.9783926937       17.4263480689       32.6988162803
  C        -2.1424039352       15.3672036019       34.0160764956
  H        -2.3266893794       13.2868949472       34.9235224592
  C         3.9408432386        8.6194993546       12.6550300299
  N         3.8271693848        7.2855191963       12.5877061220
  O         3.2110574824        5.4914658305       13.9036559162
  H         5.7872972741        9.0136341905       30.9023754689
  H         5.3119759273        8.1874455791       29.4694415166
  C         4.7762818081        7.2224909909       31.3702873742
  H        -5.8664959292        9.3575624413       24.7471690556
  H        -7.0230672238        8.7570545192       25.9026490573
  C        -7.5035223976       10.7651820184       25.1140371585
  C        -2.3937127606       16.0764582734       35.1582210995
  S         4.2925251526        9.6336711024       11.2307482555
  C         3.7413329826        6.5922673862       11.3043140946
  H         5.3396392546        7.4319427036       32.3123572713
  H         3.6734293702        7.1312501880       31.5976925187
  C         5.1944923584        5.8511466717       30.7466296991
  H        -7.0708358044       11.2599126482       24.2284896339
  H        -7.7076249557       11.5987924731       25.8450025851
  C        -8.7851599828       10.0540586122       24.6918948568
  H        -2.0095065441       17.0308941299       35.0568755493
  C        -2.9219277421       15.8501731365       36.4284011988
  H         4.5194261661        6.9445179172       10.6252510872
  H         4.0839097168        5.6239134612       11.5714105571
  C         2.3349729682        6.6668652036       10.6138891627
  H         4.5737532001        5.6169649910       29.9115255496
  H         5.0402382893        5.1123326341       31.4771702218
  C         6.7052798143        5.8900547349       30.4524331907
  H        -9.4371782467       10.5514961109       23.9730152318
  H        -8.4784399849        9.2224847498       24.2037757389
  C        -9.5473943529        9.8388924206       26.0060793562
  S        -3.7207120668       14.3661662667       36.9099932916
  C        -2.8407019634       16.9121230350       37.4504602550
  H         1.5750431672        6.7297643463       11.3168010540
  H         2.0919596735        7.5927951715       10.0726442417
  H         2.1751762559        5.9311056920        9.8618250020
  H         7.1829181097        6.5175514155       31.1687440013
  H         6.7708480490        6.2535678523       29.4223647725
  H         7.0891703643        4.8671150640       30.4210465819
  H        -8.8680399835        9.3850719654       26.7987253268
  H       -10.3384134070        9.0917407352       25.8179651420
  H       -10.0355125685       10.7054634343       26.4654642041
  C        -3.9549098262       15.1891692645       38.4178977055
  N        -3.6098041837       16.5050710017       38.5013060629
  O        -2.2698502516       18.0252329496       37.2673312546
  S        -4.8315657954       14.5008762683       39.7979075128
  C        -3.7387145693       17.2876430383       39.6393301723
  H        -3.8224143959       18.2787469805       39.2804983252
  H        -4.5758104350       17.0817906104       40.2527980531
  C        -2.5764927835       17.1309865738       40.6027609572
  H        -1.7261614492       17.5905341032       40.2337288780
  H        -2.8823610481       17.4879992405       41.6053763760
  H        -2.2973132259       16.0542252618       40.7289477491
