352
i=
  H         4.4612037574        1.6352156198       13.0840076952
  C         3.7736763680        2.5058913852       13.1327152613
  H         4.4532601860        3.4084733932       13.1336221411
  C         2.8842897137        2.5865369421       11.8929101544
  C         2.9721785482        2.4600407822       14.4535379023
  C         3.6763403637        2.8211979507       10.5970010842
  H         2.2957769963        3.5131336212       12.1063441010
  H         2.1890784898        1.8055444117       11.7352128172
  H         3.4524517958        2.8860836712       15.3278301127
  H         2.7528056040        1.4442758149       14.5959619348
  H         2.0788221156        2.9844452269       14.1794770257
  C         4.5329073537        1.5525208640       10.2510425887
  H         3.0374751524        3.1492455943        9.8067493683
  H         4.2359428637        3.6724937430       10.6988198816
  C         5.1905303987        1.6789728997        8.8519132516
  H         4.0448789470        0.6176255568       10.3809748089
  H         5.3337330408        1.5560113927       10.9660116868
  C         6.4314668531        2.4825236788        8.8029722870
  H         4.4244596386        2.1851174783        8.1983902325
  H         5.4997012255        0.6700054487        8.4848680863
  C         7.7129264317        1.6767469255        9.3196305109
  H         6.5174148291        2.8281858058        7.7600921102
  H         6.2306865930        3.3887721096        9.3305393174
  C         9.0229688521        2.5116403600        9.5320388459
  H         7.9581137187        0.9358506649        8.5391747994
  H         7.4795673802        1.1392659942       10.1913557223
  C         8.7035251339        3.8837322222       10.2039024428
  C         9.4885704719        3.2591284624        8.3154379816
  C        10.1795513629        1.7607626682       10.2573202579
  C         9.0277445160        4.9959273868        9.4813149954
  C         8.1617189923        4.2963309305       11.4105923225
  C         9.5319581660        4.6388232196        8.2680308518
  C         9.9693086902        2.6357802913        7.1671313162
  H         9.7954216540        1.3609230180       11.2004525458
  H        10.4320217758        0.8488552888        9.6679792966
  C        11.4267043862        2.5804308098       10.5233192773
  S         8.7245163827        6.5306184502       10.1755454660
  C         8.0342207592        5.6570618052       11.4652829336
  H         7.9585060913        3.5002460404       12.1290000849
  C        10.1099196822        5.2643908955        7.1563537778
  H         9.9287235525        1.5494160501        7.1427928813
  C        10.5442190069        3.2689833193        6.1115209499
  H        11.1922189599        3.5374907544       11.0386070432
  H        11.7549589454        3.0703121424        9.6566713083
  C        12.7063975837        1.9946851686       11.1527629676
  C         7.5284863410        6.3878850131       12.6514061726
  C        10.5749422409        4.6214618870        6.0397320923
  H        10.0218397149        6.3476901894        7.1680604974
  C        11.0539265852        2.7683146083        4.9125778476
  H        13.6514689740        2.5451955455       11.2197899524
  H        13.0459697446        1.1115044797       10.5318899132
  C        12.7130639761        1.5417365422       12.6260760336
  C         7.6789247490        7.7811104513       12.8558874509
  C         6.8762588538        5.6181874862       13.7485307507
  C        11.0881204405        5.2486283494        4.7692814445
  C        11.3342875232        3.8561208326        4.1122569694
  S        11.4070724923        1.2538712626        4.2063123924
  H        12.0961655093        0.6932850677       12.7780230116
  H        13.6569999143        1.0657851015       12.8438616365
  C        12.6129623933        2.6679838380       13.5827789065
  N         7.9950124269        8.6778803128       11.8083497580
  C         7.4249884726        8.3530720410       14.1148202113
  C         6.6495359949        6.1990567373       15.0049908138
  H         6.6697062640        4.5668953932       13.6211664555
  C        12.2955716495        6.1894250636        5.0200109398
  C         9.9868700445        5.9823647337        3.9846123582
  C        11.7459778956        3.4187069621        2.8389659548
  C        11.7624666714        2.0609458822        2.6772371645
  H        12.5303937098        3.5495617797       13.0085186344
  H        13.5658718163        2.8646159297       14.0812741701
  C        11.5787360458        2.5139208475       14.6613371403
  S         8.0511617957       10.1091179661       12.5411039189
  N         7.6042227238        9.6611821959       14.1003779634
  C         6.9301727957        7.6166108249       15.2400887227
  H         6.1521498028        5.6576797038       15.7672239036
  H        12.1413592522        7.0089034309        5.7045473984
  H        12.5548649813        6.6787208561        4.0521551579
  C        13.5179201460        5.5158816535        5.4046104198
  H         9.5661219676        6.7714506600        4.6401197469
  H        10.3568539272        6.4533626612        3.0814056453
  C         8.7386477144        5.2047288326        3.6066082038
  H        11.8809441020        4.1407579354        2.0799500535
  C        12.0956087880        1.3770787554        1.3817800246
  H        11.6299856132        3.5015919920       15.0997108074
  H        10.6247402268        2.2298329890       14.2945928456
  C        12.0572186801        1.5476720039       15.7122429885
  C         6.5903931248        8.4118639259       16.3862379923
  H        13.5203616141        5.2167343104        6.3877312227
  H        13.6561648601        4.7452922457        4.6824764850
  C        14.7199558815        6.3929802717        5.3873930355
  H         8.4141219717        4.6696028964        4.4979261789
  H         9.0000483973        4.4106698038        2.9223835127
  C         7.4448593478        5.9542357841        3.1178225386
  C        11.9604187742       -0.0178778194        1.2211094594
  C        12.4494467248        2.1908974662        0.1693654978
  H        12.7181623837        0.7059815356       15.3319591761
  H        11.2084512611        1.0033986685       15.9853134834
  C        12.7144503089        2.0779496052       16.9697582946
  H         6.5763712783        9.4896866098       16.2845557671
  C         6.3941852497        7.9592878954       17.6994727658
  H        14.7381261531        7.0999264094        6.1248475048
  H        14.7846966297        6.9381460255        4.5097498553
  C        15.8833737933        5.5030203660        5.7291491389
  H         7.0564604136        6.4668265404        3.9684337315
  H         7.6051304116        6.7211247349        2.3543371462
  C         6.3914195054        4.9842846155        2.6478598180
  N        11.6994726943       -0.8597416260        2.2190699470
  C        12.3128772969       -0.6578512823        0.0477096075
  C        12.6686898269        1.5369481357       -1.0837926388
  H        12.4313934945        3.2159414874        0.1638045773
  H        12.0654872403        2.2464682389       17.7972939912
  H        13.1546015196        3.0361830281       16.7671682779
  H        13.5235789116        1.3977104621       17.1949990339
  S         6.2630533688        6.3201361530       18.3549247830
  C         6.2923580248        9.0479862112       18.7208718213
  H        15.4867090793        4.7174188484        6.4483808745
  H        16.4344425577        5.0749816971        4.8493321169
  C        16.8028871970        6.2647881443        6.6055944621
  H         6.3621647314        4.2681893545        3.3875620496
  H         6.6804947719        4.4629153817        1.7586174752
  C         5.0478416636        5.6501828975        2.2992866062
  S        11.8228277060       -2.3775694227        1.7049509977
  N        12.2385986707       -2.0301807691        0.1696103655
  C        12.7133360484        0.0411138859       -1.1872679837
  H        12.8865150730        2.1146981998       -1.9479362412
  C         6.0924537283        7.1297519649       19.8937819796
  N         6.1026027515        8.5040489555       19.9093474461
  O         6.4149512833       10.2544974968       18.4093277428
  H        17.3127565945        6.9743598635        5.9958300992
  H        16.2085027534        6.8121938852        7.3451154069
  C        17.6387372970        5.3551368989        7.4454578845
  H         4.1530927310        5.0488132695        2.3250668080
  H         4.8683982592        6.3622662855        3.0974206615
  C         5.0952125894        6.3660961491        0.9361012691
  C        12.8770623236       -0.6743509325       -2.3920239069
  S         5.9668298351        6.2452935439       21.4179501598
  C         6.0911245952        9.2104236306       21.1513014326
  H        17.1490109321        5.2265353729        8.3862579980
  H        17.7839849649        4.3045125814        7.0802174707
  C        18.9632466420        5.9908953228        7.7180751349
  H         4.5993789992        5.7418098250        0.2079995614
  H         6.1880229148        6.4786920882        0.7350343948
  C         4.4312047418        7.7508650178        1.0816915975
  H        12.3590825098       -1.6146874065       -2.4708719188
  C        13.3426871881       -0.4418450349       -3.6756128161
  H         5.4688015739        8.7948197784       21.9372519788
  H         5.5466911109       10.1209285103       20.9692594102
  C         7.4630939214        9.3413306311       21.6085649994
  H        19.3854347227        5.2063669871        8.3225100419
  H        19.0107351097        7.0215365250        8.1160933119
  C        19.8454263584        6.0233109951        6.4801253245
  H         4.1820811712        8.1805358243        0.0918456664
  H         3.4635799941        7.5137161009        1.5588858797
  C         5.2258412905        8.8621445100        1.8847742736
  S        13.9450066825        1.1055317588       -4.1058886250
  C        13.2614695646       -1.4744283688       -4.7725495973
  H         7.7912707914        8.5549722547       22.2337554268
  H         7.6166260494       10.2064007662       22.3350373812
  H         8.2516038462        9.6192472654       20.9265973471
  H        19.6875923388        6.8402680761        5.8002919166
  H        20.9022703923        5.8692126549        6.5747605405
  H        19.6015363342        5.1497448113        5.8945808369
  H         5.4866986914        8.6286999624        2.9319269309
  H         6.1932619046        9.1823183970        1.4296870514
  H         4.4823290725        9.7097577392        1.9228331018
  C        13.9803469048        0.4984017314       -5.7613722069
  N        13.8704853683       -0.8779973699       -5.8522213134
  O        13.0325279299       -2.6946883181       -4.6745008927
  S        14.4219442763        1.3981585533       -7.1374679978
  C        14.0664347048       -1.6408207723       -7.1048152439
  H        14.4415857693       -2.6543378114       -6.9263953069
  H        14.8929028633       -1.2129440749       -7.6999658885
  C        12.8368472969       -1.6844661843       -7.9493485536
  H        12.6692862560       -2.7239311895       -8.1163135641
  H        12.9877792623       -1.3660763257       -9.0035824903
  H        12.0371615899       -1.1460504014       -7.4641856969
  H        -2.5064415425       15.7628557354       16.3802915200
  C        -2.7328534212       14.6356177779       16.2322074887
  H        -3.7546191977       14.4158842365       16.4196542952
  C        -1.9241465568       13.6924605929       17.1608411509
  C        -2.3780418361       14.2298677453       14.8148166111
  C        -1.8466167646       14.3436164226       18.4715491510
  H        -2.4365544736       12.7247235511       17.1244793795
  H        -0.9183543595       13.5598395553       16.7979697565
  H        -1.3895249568       13.7313017125       14.7340996877
  H        -3.0756473451       13.5124281380       14.4797895629
  H        -2.3652118230       15.0375643286       14.0897751514
  C        -1.4395733983       13.3684525636       19.5414938784
  H        -2.7832051686       14.8717257004       18.5852643109
  H        -1.0499065119       15.0925299477       18.3895427424
  C        -2.0326339915       13.7987260452       20.8643237878
  H        -1.7868664015       12.3571178715       19.2969953948
  H        -0.3342546732       13.2383238820       19.5106994543
  C        -1.1551340646       13.2486501072       22.0268285556
  H        -3.0513162797       13.4062264768       20.8484074383
  H        -2.0321859075       14.9206996001       20.8805051499
  C         0.1447858081       14.1011496428       22.3361833663
  H        -1.7533070918       13.0843323032       22.8867380708
  H        -0.8714855925       12.2439292509       21.7422428575
  C         1.2215722108       13.4304853730       23.2987656755
  H         0.7186036905       14.4519450560       21.4016735862
  H        -0.2215570026       14.9611162411       22.9131010137
  C         1.5977182745       12.0845134683       22.6233040847
  C         0.7299599408       12.7190345086       24.5332247651
  C         2.5750424360       14.2352557896       23.4200699617
  C         1.4479444869       10.9713887757       23.4103179767
  C         2.0206425785       11.7276314095       21.3204228357
  C         0.8782516335       11.3499290440       24.6412233007
  C         0.0798426271       13.2823308388       25.6298165291
  H         2.7468110836       14.8671654424       22.5668986495
  H         2.3754092788       14.8310198505       24.2939174099
  C         3.8494366228       13.3934276625       23.6359563729
  S         1.8316733535        9.5253745526       22.7387798252
  C         2.1782356520       10.3361436009       21.2242620211
  H         2.1202861977       12.4542264857       20.5685968968
  C         0.4616863767       10.6378704077       25.7411401329
  H        -0.0081627386       14.3303821409       25.6907690487
  C        -0.2731142057       12.5764484972       26.7605149466
  H         4.0580626135       12.7818764101       22.7758843870
  H         3.6178225563       12.6661817846       24.4072717844
  C         5.0464920718       14.2068005982       24.0688235912
  C         2.5289232348        9.5989092800       19.9935492326
  C        -0.0928692923       11.2170980055       26.8684508872
  H         0.6778320508        9.5248112293       25.7579895005
  C        -0.6802370826       12.9581314441       28.0507006285
  H         5.8054335222       13.6773631531       24.6363568054
  H         4.7012668722       15.0536943617       24.6393611083
  C         5.6370542779       14.7076890964       22.7613886475
  C         2.6052488413        8.2140045330       19.8018099204
  C         2.8011579051       10.4144478542       18.7827144519
  C        -0.5267813689       10.5167693488       28.0841490139
  C        -0.7556231299       11.8379974361       28.8725069016
  S        -0.8778664152       14.5291438907       28.7620176944
  H         6.4241273633       15.4152629996       23.0371208587
  H         4.8934576672       15.2779176371       22.0756583715
  C         6.2689419334       13.4897331363       21.9586830093
  N         2.5702252702        7.2795658605       20.8353789053
  C         2.7514957703        7.6122991015       18.5785601322
  C         3.0129701028        9.8330551338       17.5352917178
  H         2.6341621874       11.4837320911       18.8109104746
  C         0.5956416721        9.6492972723       28.6788685366
  C        -1.8574482723        9.7241857344       27.8061319905
  C        -0.9903266562       12.1980372690       30.1458498347
  C        -1.1278869706       13.5848474378       30.3075030068
  H         7.3464657207       13.4822446786       22.1194359929
  H         6.0693742712       12.5104352649       22.4294662280
  C         6.0807469338       13.4719596366       20.4163294910
  S         2.4757510436        5.8062342934       20.2443414959
  N         2.7897182346        6.2533489905       18.7033282455
  C         2.9906664104        8.3581406358       17.3787836355
  H         3.1014547493       10.5680972815       16.7399189759
  H         0.9938182906        8.9526228611       27.9356201572
  H         0.1745895700        9.0182446774       29.4425451482
  C         1.7231028909       10.4599172074       29.2770235433
  H        -1.5717495221        8.9237490746       27.1067458247
  H        -2.1853842553        9.1471931079       28.6957844116
  C        -3.0050777298       10.4771227718       27.2004242842
  H        -0.9987670639       11.4691481348       30.9895333213
  C        -1.2790977479       14.2307230617       31.6061197755
  H         5.5367573575       14.3687210129       20.1060900362
  H         5.3229989622       12.6899097611       20.2265477617
  C         7.3215684822       13.4204670822       19.6402978155
  C         3.3122188804        7.7099754382       16.1480459942
  H         2.1652182474       11.2532338739       28.6030266255
  H         1.3360023556       10.8562724411       30.2413057404
  C         2.7779941486        9.4384250489       29.8534997455
  H        -2.7786563188       10.7938433240       26.2126255818
  H        -3.2987579896       11.3135225933       27.8286317361
  C        -4.2329717737        9.7220691925       26.8996087725
  C        -1.3686730922       15.5999558448       31.7537059556
  C        -1.7071085752       13.4265624266       32.7225343119
  H         7.8671542473       14.3022886061       20.0162854511
  H         7.8392744334       12.5129468238       19.8581161069
  C         7.0598719354       13.5090680705       18.1238220498
  H         3.1914882254        6.6939541848       16.1480520247
  C         3.5720864660        8.1308098835       14.8882503501
  H         3.1919784342        8.8890827800       28.9825288497
  H         2.4022472317        8.7090185379       30.5171305088
  C         3.9481942544       10.1276428805       30.5910201386
  H        -3.9427919767        8.8552279154       26.2983247179
  H        -4.6419684493        9.2917160731       27.8401920063
  C        -5.2699733200       10.5034343202       26.0897609569
  N        -1.2360678177       16.5108823715       30.7612660370
  C        -1.7763846974       16.2227808494       32.8689454875
  C        -2.0226396967       14.0177212855       33.9341466753
  H        -1.7506886701       12.3548960373       32.6451739334
  H         5.9651744401       13.5652854036       17.9418799625
  H         7.5928571674       14.4419727837       17.7235079556
  H         7.4339323465       12.5414560093       17.6037066146
  S         4.0287211215        9.6687964901       14.3771444541
  C         3.5638381532        7.1152738386       13.8406844994
  H         4.0777677543       11.1465541397       30.1925496535
  H         3.7337354265       10.3537476324       31.6388523476
  C         5.2896639920        9.3622111739       30.5525480678
  H        -4.7847055372       11.0095228927       25.2570029488
  H        -5.6307516275       11.2496535419       26.6998551135
  C        -6.4326199496        9.6896254706       25.4479930100
  S        -1.3374954236       18.0254990752       31.2864370083
  N        -1.9449141720       17.6396271978       32.6826575844
  C        -2.1081255511       15.4993696187       34.0320014059
  H        -2.2479263179       13.3545111741       34.6691235181
  C         4.2634888114        8.9700334645       12.7849322214
  N         3.8880791668        7.6552452340       12.6609769113
  O         3.2766483034        5.9466366947       14.0554965798
  H         5.9453901747       10.1268568211       31.0879807629
  H         5.5065160101        9.3835591938       29.5254624963
  C         5.3214008956        7.9427645620       31.0110807684
  H        -6.0628282619        9.0890204289       24.6067277588
  H        -6.9156766828        8.9265319462       26.1814590742
  C        -7.4437293001       10.6566201669       24.8845512337
  C        -2.4916153371       16.2909056636       35.1665143284
  S         4.7922391287        9.7607133281       11.3043958679
  C         4.0365110482        6.8291214811       11.4713249122
  H         4.5436018763        7.6190645062       31.7044591673
  H         5.0813008974        7.4299582478       30.0738718984
  C         6.7560585653        7.4169068075       31.4266227256
  H        -7.0644213352       11.2568855995       24.1145245413
  H        -7.7375427308       11.4443580173       25.6273574683
  C        -8.6793208527        9.8169663170       24.4333031050
  H        -2.1904787706       17.2828540788       35.0916798530
  C        -2.9286084318       16.0016742962       36.4201997931
  H         4.7469981957        7.2629799843       10.8182748230
  H         4.5132276426        5.8688935049       11.6313804983
  C         2.6924874136        6.6853793926       10.6792098448
  H         7.0286588294        7.8084596406       32.4479177255
  H         7.5039085945        7.7084798607       30.7234468566
  C         6.9858672521        5.9330539678       31.2637793977
  H        -9.1592259428       10.2922863704       23.6078844104
  H        -8.3520086725        8.9001604529       24.0161860722
  C        -9.6934686034        9.6421078943       25.5734848415
  S        -3.5647487457       14.4581255919       36.9624566180
  C        -3.0902843635       17.0463106621       37.4354191570
  H         2.7366862414        5.8132370813       10.0154321324
  H         1.9054673693        6.6293852238       11.4365476907
  H         2.4831167946        7.5966239489       10.0422137103
  H         7.4267664249        5.6044525417       32.2013705613
  H         7.6081401932        5.6692147260       30.3729418652
  H         6.0760265966        5.4694586319       31.0452178696
  H        -9.9191162449       10.4260085968       26.2989931357
  H        -9.2905246936        8.8402794164       26.1779978435
  H       -10.5999293888        9.2684862490       25.1542056702
  C        -4.1014319822       15.2909960488       38.4195851166
  N        -3.8047540335       16.5952383896       38.4151144396
  O        -2.6561658055       18.2070828457       37.2406102784
  S        -5.1011128736       14.6509196335       39.7459305557
  C        -4.1560691366       17.4341775413       39.5609215166
  H        -4.1054466691       18.5309394363       39.3477154614
  H        -5.1912787079       17.2763625612       39.7989896158
  C        -3.2191434269       17.0545922293       40.7893679178
  H        -2.5444220505       17.8951845945       41.1179877484
  H        -3.7938826684       16.7190541960       41.6365117028
  H        -2.5420118596       16.2038212345       40.4905733416
