352
i=
  H         2.1853101418        3.2581795622       12.5510038645
  C         2.5131651239        2.2474385992       12.3217846066
  H         1.7794609679        1.6640697489       12.9062513719
  C         2.5004526641        1.9029321881       10.7922803676
  C         3.8515100409        1.9049145472       12.9576113038
  C         3.6661773991        2.5141671524        9.9836198928
  H         1.5623812755        2.1784636613       10.3114217447
  H         2.5256752993        0.7603114358       10.7302019368
  H         4.4703626373        1.1113710438       12.4192718656
  H         3.6359906784        1.4467146853       13.8688826136
  H         4.4292217805        2.7642891226       13.0116397281
  C         4.5806453528        1.4883103884        9.3559883512
  H         3.1457831266        2.9586397617        9.1192805854
  H         4.1524421929        3.3751173835       10.4310210932
  C         5.3230139964        2.0138204847        8.1473277729
  H         4.0050743736        0.6065351589        9.1174662074
  H         5.2616953981        1.1070700782       10.1533786274
  C         6.5234933987        2.8087587576        8.5032474902
  H         4.6282733226        2.4620362767        7.4440821831
  H         5.6828197185        1.0874391396        7.6999483601
  C         7.7164465626        2.0397483209        8.9161849350
  H         6.7111755486        3.5415193424        7.6754142456
  H         6.1556133266        3.4485125284        9.2755787844
  C         9.0244203566        2.8778087799        9.2200983756
  H         7.9958280909        1.2290069320        8.1950216108
  H         7.5567943017        1.6596312672        9.8908181558
  C         8.6497214585        4.1769236092        9.9099577575
  C         9.4360544591        3.5557863574        8.0275374125
  C        10.2040126754        2.1315709697       10.0102301232
  C         8.7368993718        5.2784685978        9.0673092225
  C         8.0444165994        4.6395364528       11.1268903138
  C         9.2803692962        4.9046693784        7.8702371241
  C         9.8220101340        2.9428631654        6.8516319268
  H         9.8673692945        1.6986650586       10.9535042109
  H        10.5846198985        1.2872444583        9.3992687868
  C        11.3677466214        3.1257483903       10.3088610428
  S         8.2619555922        6.7498224787        9.7293284591
  C         7.9607910652        5.9712352739       11.2416450966
  H         7.9887551598        3.8962564650       11.9111978598
  C         9.6976544544        5.5636899020        6.6924210079
  H         9.9474584877        1.8606239298        6.8794420842
  C        10.1473095257        3.5369255932        5.6607703594
  H        11.1627677735        4.2207844179       10.4504759701
  H        11.9687035881        3.0687658771        9.3974617470
  C        12.2306241466        2.6280576829       11.4354385455
  C         7.4137035482        6.6683569901       12.4389395452
  C        10.1142985505        4.8908691783        5.5366327086
  H         9.6507701288        6.6518424908        6.6695775078
  C        10.6304059341        3.0492868635        4.4205527044
  H        13.2039771254        3.1092095321       11.3577962365
  H        12.3453550739        1.5397156251       11.3086807456
  C        11.6955703030        2.9174624913       12.8425803625
  C         7.4192952101        8.0538474899       12.7517618583
  C         6.9936947757        5.7908265769       13.5178986120
  C        10.4048897279        5.4774656964        4.2397471758
  C        10.7271827427        4.1006359204        3.5698358384
  S        11.0235508330        1.5691765131        3.6939362692
  H        12.2482964977        3.7826752819       13.0761066317
  H        10.6445761580        3.2628728140       12.8452023025
  C        11.8585636322        1.8637445368       13.9369217851
  N         7.7529217150        9.0378301647       11.8168483173
  C         7.1508385545        8.5489769309       14.0100497897
  C         6.5872937214        6.2930974996       14.7360649563
  H         6.9789429766        4.7806596809       13.3713116431
  C        11.6427892637        6.3925921204        4.3208019045
  C         9.1980905250        6.2045216909        3.5130862638
  C        11.1470030180        3.7657868721        2.3356319866
  C        11.2800906230        2.4532820411        2.2049331506
  H        12.8342991943        1.4545701622       13.8426332518
  H        11.1533439663        1.0806583125       13.5904400485
  C        11.6120965851        2.3132877847       15.3895517046
  S         7.8400624110       10.4654868072       12.6516005668
  N         7.1889709819        9.9436158157       14.0615878185
  C         6.6835012425        7.7878333408       15.1199051591
  H         6.1817998700        5.5567292236       15.4550349376
  H        11.2384965011        7.3569377454        4.5766287796
  H        12.1039650113        6.6026515820        3.4097696199
  C        12.6610509813        5.9257136472        5.3128132985
  H         8.8389248672        7.1649610522        3.8535678387
  H         9.5336067030        6.4086673165        2.4883914496
  C         7.9148343613        5.3803442945        3.5111036267
  H        11.2366171719        4.4696571604        1.5896005282
  C        11.6547340396        1.7204504353        0.9367737864
  H        11.3243495324        3.3202886114       15.3333184184
  H        10.8083317082        1.7570929174       15.8409849164
  C        12.8211431383        2.1457523111       16.3000492019
  C         6.4267307131        8.4310792890       16.3619122910
  H        12.3295594356        6.0279538801        6.3859694367
  H        12.7930283318        4.8485728797        5.1679010538
  C        14.0848495604        6.3265866314        5.0363937338
  H         7.7443101478        5.0177311298        4.5141356772
  H         8.0908863346        4.4879883526        2.8448392096
  C         6.6114186157        6.0173147928        2.9946493322
  C        11.6846215235        0.3181976619        0.7784068999
  C        11.9901316979        2.4245507809       -0.3188306673
  H        13.6926570869        2.3850227690       15.7217038468
  H        12.9284340791        1.0585412166       16.4212129540
  C        12.6629896049        2.9349902959       17.6174455076
  H         6.5963120394        9.5688251542       16.3408928928
  C         6.2228739581        7.9378419927       17.6204262820
  H        14.0372527103        7.3948210504        4.8137324397
  H        14.3901731893        5.7559926136        4.1363435862
  C        14.9819332781        6.0100031833        6.2443285880
  H         5.7103045408        5.4090126853        3.1827755848
  H         6.4977397841        6.8779176698        3.5710410092
  C         6.6849722380        6.4152460913        1.4480926483
  N        11.3722751582       -0.5493064292        1.7503705493
  C        12.0073719067       -0.3207922166       -0.3674602817
  C        12.3878117798        1.8212114713       -1.4931160103
  H        11.9858796541        3.4887188982       -0.2060830806
  H        13.6184320550        3.2595484308       17.9647520508
  H        12.2183175188        2.4338112738       18.4203465893
  H        12.1532648164        3.8345558518       17.4686932970
  S         6.0448008015        6.3495442220       18.1011375677
  C         6.1584389132        8.9483166624       18.6860201889
  H        15.2251774437        6.8623979225        6.8116877365
  H        14.4942486822        5.3657150004        6.9925430586
  C        16.2887396629        5.3968616690        5.7363554359
  H         7.0700659244        5.5127546961        0.9040457594
  H         7.4901771102        7.1596078185        1.3275968710
  C         5.3774022396        6.9975279969        1.0290964671
  S        11.6007129654       -2.0875321626        1.2066714740
  N        12.0294030424       -1.7335532400       -0.3130659932
  C        12.3578900768        0.3669042487       -1.5134481688
  H        12.6646841415        2.4190715161       -2.3084319889
  C         5.5828449453        6.9690289093       19.6680115254
  N         5.7336337573        8.3227769816       19.8111263232
  O         6.2659522079       10.1459764917       18.5334849689
  H        16.0513124840        4.4996751264        5.1855351771
  H        16.9284661609        6.0309937172        5.0831899648
  C        17.0604769958        4.7751512084        6.9036706254
  H         5.4285855969        7.3711430143       -0.0096393994
  H         4.5508070781        6.2384343130        1.0321154955
  C         4.8844151680        8.1284067231        1.8392819287
  C        12.5493018516       -0.4729203459       -2.6595888860
  S         5.1697390520        5.9768393447       21.0363606187
  C         5.6903620713        9.0260322600       21.0436681957
  H        16.3347459109        4.3509943566        7.5814146403
  H        17.6904342331        3.9147257024        6.6001394184
  C        17.9641450463        5.7970406519        7.6960071800
  H         5.7664805731        8.7039819427        2.2868150415
  H         4.2866808290        7.6929282440        2.5958470978
  C         3.9165560635        9.0471816777        1.0158612046
  H        12.5207228855       -1.4879795757       -2.4863707398
  C        12.9778733140       -0.2253637138       -3.9840477860
  H         5.1008688976        8.4655899054       21.8011037298
  H         5.1752719436        9.9521210489       20.9375814104
  C         7.1075351051        9.2715178408       21.6197970751
  H        18.1323995651        5.4211688743        8.7286039994
  H        17.3810910327        6.7487311149        7.6864649076
  C        19.2448480789        5.8507324674        6.7920937654
  H         4.4852555649        9.6286416157        0.2778409732
  H         3.2878354901        8.3485266824        0.5431168050
  C         3.1438902265        9.9857056400        1.8552061398
  S        13.5087875437        1.3895523797       -4.4941843807
  C        13.1854960816       -1.2714692303       -4.9514132457
  H         7.8087710490        9.6435796450       20.9000360880
  H         7.5228479670        8.2829890829       21.9967928894
  H         7.0796256608        9.9660179519       22.4250104885
  H        19.1445103466        5.9981739660        5.7594283510
  H        19.8340265403        6.6797940389        7.1005770559
  H        19.8223813746        4.8971979107        6.8360807873
  H         2.3196814402        9.4418423298        2.3945263543
  H         3.9628817133       10.3037802468        2.5373902756
  H         2.7760179692       10.8065493227        1.3028240191
  C        13.9855859263        0.5798546256       -5.9497035086
  N        13.8101104854       -0.7234731255       -5.9838454562
  O        12.9017666210       -2.4509745212       -4.7809525100
  S        14.8930021172        1.2546856543       -7.2704710285
  C        14.1675042243       -1.5279890205       -7.1508130251
  H        14.2044104965       -2.5677034322       -6.9200447970
  H        15.1924390449       -1.3886334775       -7.4627339676
  C        13.0977400164       -1.3814588830       -8.3164596737
  H        12.7448995696       -2.3797728947       -8.4352321893
  H        13.5594789878       -0.9839818612       -9.3163447705
  H        12.2425367429       -0.7708424935       -8.0143522886
  H        -2.4631648313       12.3589179836       17.4507110279
  C        -2.7044409466       13.3008957662       17.0541867884
  H        -1.7213609502       13.6845650619       16.7598773844
  C        -3.3261992551       14.2214260429       18.1209038100
  C        -3.5643975571       13.1731034802       15.7498826008
  C        -3.7910979902       13.2763955600       19.2907280199
  H        -2.6216407229       14.9551782725       18.4040156565
  H        -4.1597274786       14.8043390671       17.7608619885
  H        -3.0735340025       12.6501253628       14.8996208878
  H        -4.4318743631       12.5090503599       15.9186112869
  H        -4.0045803122       14.0920798532       15.3126864138
  C        -2.7083393728       12.6101897680       20.1396534939
  H        -4.3296090850       12.4539050788       18.9290460242
  H        -4.5439428663       13.7477667491       19.8833901517
  C        -3.1194558590       12.7293486069       21.6058442862
  H        -2.5244251746       11.5847652053       19.7426700022
  H        -1.7671704098       13.0786285170       20.0669384762
  C        -2.0393849756       12.2547016965       22.6595517886
  H        -4.0149892270       12.1496246299       21.6680510306
  H        -3.3302757113       13.7412835156       21.8737113887
  C        -0.8509609605       13.2907794293       22.7819561292
  H        -2.4063458696       12.2265481544       23.7168325654
  H        -1.7527382608       11.2289994331       22.3909162183
  C         0.4508673225       12.6852282963       23.3699924096
  H        -0.4748599592       13.7379589085       21.9075811876
  H        -0.9820753967       14.1322609340       23.4748345444
  C         0.8183075165       11.3365350566       22.6990965085
  C         0.2227618810       12.0254136241       24.6920440815
  C         1.7324872812       13.7401297058       23.4194187365
  C         0.6991526616       10.2888687578       23.6473543835
  C         1.0782582844       10.7900298989       21.3777476728
  C         0.3500839588       10.6768904816       24.9214992211
  C        -0.2671519756       12.7203392622       25.7678932028
  H         1.7525268589       14.3503179518       22.5511615732
  H         1.5834517616       14.4141243218       24.2483264517
  C         3.1508478550       13.1573756324       23.6641129716
  S         1.1010244036        8.7119442078       22.9530689540
  C         1.3266966972        9.4597616531       21.4029869134
  H         1.0352546520       11.5108393620       20.5432617864
  C        -0.0695475877       10.1398835712       26.1087377468
  H        -0.3719912570       13.8087389071       25.9193338345
  C        -0.4825947033       12.1742208432       27.0036207280
  H         3.4956530384       12.5458750100       22.8367387702
  H         3.0344729286       12.4914052801       24.5453225837
  C         4.2311822078       14.2309198397       23.9763478193
  C         1.7471344975        8.6951607725       20.1762149340
  C        -0.5136197273       10.8470833489       27.2226170033
  H        -0.1381089617        9.1000346159       26.3325304406
  C        -0.8738011490       12.7375155823       28.2138147621
  H         5.0514033079       13.9301709001       24.6520944778
  H         3.8222103524       15.0296291634       24.5119674023
  C         4.8021871301       14.8558038416       22.7400153912
  C         1.9753668358        7.2906215072       20.0352976182
  C         2.3327180464        9.4432177106       19.0573198675
  C        -0.9669982697       10.3027078473       28.5588070676
  C        -1.2098664314       11.7109413003       29.1349963211
  S        -1.3325522030       14.3117733511       28.8576394413
  H         5.2346736720       15.8195482901       22.9811739272
  H         4.0296338605       15.0187988118       21.9767105319
  C         5.9600149471       13.9521036670       22.2949695769
  N         1.7363510027        6.3373601772       21.0561555242
  C         2.3187449634        6.7147390078       18.8428246315
  C         2.7770949703        8.8406332707       17.8205161396
  H         2.3803576714       10.5294343685       19.2005212997
  C         0.1734992038        9.5655187030       29.2945267076
  C        -2.2449427353        9.5060661977       28.4234968996
  C        -1.6254311132       12.1967714134       30.3790086724
  C        -1.6922832837       13.5789882397       30.4219725900
  H         6.8790873789       14.4020561119       22.6281535548
  H         5.9140045552       13.0778819044       22.9327455924
  C         5.9619223698       13.6000098511       20.7762183197
  S         2.0026049266        4.8354234374       20.4319807405
  N         2.3721396914        5.2935354779       18.9200215143
  C         2.6798581573        7.4214948184       17.6299197511
  H         3.0061346840        9.5610631815       17.0761023173
  H         0.5119025080        8.7206669824       28.6541049278
  H        -0.1962126452        9.1231432230       30.2124205346
  C         1.4174548453       10.4373959200       29.7277608458
  H        -2.0874702664        8.6449036894       27.7150692120
  H        -2.4931968603        9.1456078401       29.4640878482
  C        -3.4633593130       10.2285377439       27.7788414078
  H        -1.7780348285       11.4883121622       31.1430362713
  C        -1.9910721773       14.3688438864       31.6811435480
  H         5.1637126400       14.0656792469       20.1740768003
  H         5.6199176740       12.6147856854       20.8201895483
  C         7.3742705379       13.6359683296       20.1777950835
  C         3.0830887704        6.7678148790       16.4288472425
  H         1.6306783171       11.1605238982       28.9011192074
  H         1.0896956400       10.9513172960       30.6497538977
  C         2.6132463412        9.6033600550       29.8562770658
  H        -3.0789071732       10.3818152780       26.7762032624
  H        -3.5479827877       11.1803099159       28.2116431086
  C        -4.7245013924        9.3085174659       27.8054937419
  C        -2.0739063687       15.7633952589       31.8239796931
  C        -2.3015892357       13.5570842270       32.8987937143
  H         7.9343627046       14.5160239910       20.3787724979
  H         7.9419942298       12.7600396339       20.4040441238
  C         7.1655401313       13.7708621899       18.6785284506
  H         2.8968815102        5.7425404236       16.4115735128
  C         3.4271893679        7.1386823810       15.1665828855
  H         2.8897863703        9.1617483662       28.8906439394
  H         2.4449455956        8.7954199122       30.5394816106
  C         3.6747556644       10.5057244354       30.5011550105
  H        -4.4046850734        8.4585468654       27.2183360739
  H        -4.9820978854        8.8054287941       28.7844008324
  C        -6.0524275322        9.8544038732       27.1857293703
  N        -1.7978047661       16.6903744567       30.8493443266
  C        -2.3282990120       16.3577845322       33.0593235329
  C        -2.4936849413       14.1779442412       34.1054153100
  H        -2.1973518031       12.5323429556       32.8285888738
  H         6.7092332439       14.6987374577       18.5081937369
  H         8.1167317077       13.7995158589       18.2153063745
  H         6.4707578396       12.9702553550       18.2702087175
  S         3.6414197732        8.7742128369       14.5815236106
  C         3.3677823158        6.1578627935       14.0874577238
  H         3.5031883521       11.4635869768       30.0540484519
  H         3.3276799716       10.4824757069       31.5704669369
  C         5.1609933810        9.9834958555       30.4197439239
  H        -6.4004991571       10.6919414281       27.8246908272
  H        -6.7722419871        9.0614799094       27.4659612128
  C        -6.1502722365        9.9309736132       25.6618590034
  S        -1.8455722143       18.1833501463       31.4063335475
  N        -2.3174167135       17.7371385123       32.9230445350
  C        -2.6252988500       15.6422723901       34.2380084584
  H        -2.7203029299       13.5654268998       34.9503817613
  C         3.8032925473        8.0596450061       12.9625345887
  N         3.7582212162        6.7330302869       12.9557646846
  O         3.0882460748        4.9864917760       14.3179169268
  H         5.7755651570       10.7937286466       30.8109304403
  H         5.3256436171        9.7246444986       29.3224477422
  C         5.4658937200        8.6884441825       31.1712068202
  H        -5.1849415469       10.1807841479       25.2767008019
  H        -6.2133830102        8.9184419508       25.2986239915
  C        -7.3269358405       10.7984220863       25.1927096504
  C        -2.8932270864       16.4138292926       35.3579072927
  S         4.0088298377        8.9757966872       11.5273593362
  C         3.6283557635        5.9392048740       11.7828343220
  H         6.3162863115        8.7707828362       31.8671161960
  H         4.5282665397        8.3646081084       31.6690795455
  C         5.8122715013        7.5411851721       30.1567948399
  H        -6.9665882820       11.4216546716       24.3723946995
  H        -7.5323639725       11.4091023471       26.0319901720
  C        -8.6343835280        9.9925998967       25.2215436497
  H        -2.5105400430       17.3985373757       35.4250296474
  C        -3.3298067097       16.0684404822       36.6139691016
  H         4.3911257567        6.1281189022       10.9778363196
  H         3.8781032091        4.8623981770       11.9838303691
  C         2.2542412047        6.0103116590       11.2403149455
  H         6.5371364714        7.8952958558       29.3862008617
  H         4.9293776256        7.2791018432       29.5902380571
  C         6.3338434393        6.2925915104       30.8931633506
  H        -9.0200577490        9.9774524058       24.1879955691
  H        -8.4254208362        8.9564829898       25.4178754537
  C        -9.6383075593       10.6831513765       26.1137527382
  S        -3.8967785749       14.4670743364       37.0715059520
  C        -3.3843181510       17.0464784920       37.7184335506
  H         1.3738006972        6.3862040030       11.8317432331
  H         2.1522243283        6.7094759566       10.3595280670
  H         2.0366986336        4.9410289648       10.9296661112
  H         7.0635364066        6.6491866738       31.6245819452
  H         6.9542430032        5.5844785590       30.3209554049
  H         5.5734820155        5.7573895773       31.3827023800
  H        -9.6392547883       11.7350248623       25.8151554844
  H        -9.5249496627       10.5148538147       27.1587740538
  H       -10.5696509358       10.1870494610       25.9362062568
  C        -4.1087515362       15.1374197393       38.7239907511
  N        -3.9628395004       16.4568541971       38.7897185361
  O        -3.0317488362       18.2757315533       37.6314076311
  S        -4.8798236033       14.3857291095       40.1248652253
  C        -4.0210527789       17.2746303805       39.9475997818
  H        -4.2248313413       18.3109389569       39.6688617778
  H        -4.8853553021       17.0048349621       40.5126928480
  C        -2.6512304561       17.2754105685       40.7367679685
  H        -2.8074339293       17.3299145857       41.8116641909
  H        -2.1263255135       16.3822656909       40.6753564391
  H        -2.0593562429       18.0998520639       40.3695233617
