352
i=
  H         3.8027796423        3.6599710211       12.3060892289
  C         3.0024747945        3.0192193973       12.4683879113
  H         2.1886198520        3.4909983605       12.9243820180
  C         2.4912914811        2.2595529347       11.3011423937
  C         3.4487525976        2.0116692639       13.5489777453
  C         3.3980768499        2.5135118216       10.0831691503
  H         1.5046624924        2.5793554700       11.0367526194
  H         2.5534135854        1.1580388587       11.5401894824
  H         2.5581827268        1.3609565821       13.8766581268
  H         3.7704596888        2.5690246844       14.4391801251
  H         4.2429127921        1.3837804534       13.2375209079
  C         4.2462351906        1.3617052277        9.5324587568
  H         2.8777245945        2.8463718661        9.1830684582
  H         4.0158287921        3.3410568532       10.2862342802
  C         5.1375029382        1.7294366527        8.4056110198
  H         3.5594823832        0.5708951481        9.1207492574
  H         4.8665868905        0.9855214264       10.3853029546
  C         6.2834015305        2.6578710861        8.8117141444
  H         4.5143024535        2.2223119862        7.6596398720
  H         5.4776403032        0.8245867012        7.8828781293
  C         7.5153920857        1.8786007456        9.2811615877
  H         6.6133245500        3.2274333723        7.9884688975
  H         5.9653663405        3.3643442583        9.5467240566
  C         8.8043907699        2.7296399067        9.4161542494
  H         7.7074737206        0.9170789749        8.7199311655
  H         7.2972698967        1.6128539239       10.3214691178
  C         8.3825055007        3.9931317166       10.0854368119
  C         9.2427435533        3.4797435982        8.2235042327
  C         9.9944193310        1.9870161692       10.0811425463
  C         8.5556945437        5.1258238338        9.2961242498
  C         7.9044934307        4.3687172277       11.3206027355
  C         9.1798719678        4.8364443070        8.1433732465
  C         9.6782397178        2.9071460530        7.0456060881
  H         9.7443525874        1.3924923301       10.9444413224
  H        10.4468825796        1.2932566496        9.3892304492
  C        11.2637404795        2.8938886254       10.3384705831
  S         8.0342968061        6.5586932431       10.0167899817
  C         7.7973360944        5.7241397551       11.4529654807
  H         7.8560483904        3.6454496109       12.0999886862
  C         9.5887555030        5.5246971551        7.0172762291
  H         9.8080866450        1.8391879514        7.0639827532
  C        10.1116280396        3.6150417709        5.9566277218
  H        11.1499063897        4.0566604507       10.4269382347
  H        11.9313281849        2.8657181552        9.4957950091
  C        12.1945428568        2.3172142990       11.4395319484
  C         7.3829222539        6.4688606898       12.6830517418
  C        10.0971246224        4.9538213453        5.8737559163
  H         9.4112975043        6.5863660080        7.0628950192
  C        10.5474018739        3.1930279594        4.6980951408
  H        13.1429094088        2.7690323649       11.4031702496
  H        12.2615662707        1.2578723884       11.3762170648
  C        11.7228030877        2.6310724107       12.8254826719
  C         7.4553331455        7.8768305832       12.9079352346
  C         6.9112412904        5.6461580676       13.8528193017
  C        10.4449109898        5.6782039065        4.6319806387
  C        10.7640328889        4.3288004002        3.9186969208
  S        10.8268273806        1.6992797802        3.8874816390
  H        12.4686620896        3.2416522007       13.2067117029
  H        10.7305374973        3.1261804064       12.8878318530
  C        11.6592336840        1.2844262836       13.6297149981
  N         7.6013498423        8.8435574554       11.8962016530
  C         7.1222820040        8.4174383642       14.1564613973
  C         6.4810101998        6.2463123294       14.9685430022
  H         6.5077558089        4.7054694125       13.6634160004
  C        11.7674398747        6.5729664926        4.5463707125
  C         9.1689816166        6.3600874076        3.9958028036
  C        11.1845103469        3.9672310960        2.6217746347
  C        11.2530553940        2.5929400430        2.5007044813
  H        12.6132074954        0.8155311145       13.6797304579
  H        10.9605722692        0.5707696888       13.0494419342
  C        11.2623204868        1.6057065899       15.1072281485
  S         7.6715379798       10.3378815093       12.6254402695
  N         7.2291062890        9.8482349623       14.1276493717
  C         6.6604216670        7.6799975619       15.2569311285
  H         6.0702116006        5.6406414222       15.7645174593
  H        11.7232162025        7.3328601774        5.3012830324
  H        11.6509198249        7.0814188460        3.5668268970
  C        13.0310750743        5.6727686000        4.7318888743
  H         8.8634149585        7.0794972303        4.7885612379
  H         9.4561296857        6.9144641642        3.0734801436
  C         8.0520740573        5.3160956014        3.6992000729
  H        11.2281469324        4.6758010379        1.8294538561
  C        11.5875652217        1.8744045753        1.2328826072
  H        10.4845861194        2.3710186886       15.0645311729
  H        10.7357183597        0.7586919217       15.5381018440
  C        12.4152792784        1.9329335081       16.0775821153
  C         6.4407480946        8.2676812635       16.5396273515
  H        12.8961492467        4.8384047345        5.4352883523
  H        13.2686225355        5.1414130936        3.7680476390
  C        14.3014236071        6.4665326523        5.1708385010
  H         7.8962319443        4.6946595911        4.5751441610
  H         8.3307331921        4.5444123225        2.9877987828
  C         6.7714704898        5.8668281068        3.0706862749
  C        11.8821579850        0.4612179350        1.1179154045
  C        11.8726283641        2.6619638071        0.0136814237
  H        12.9886843053        2.8285722563       15.7875309233
  H        13.0657559107        1.0264450904       16.1534756386
  C        11.8963401171        2.3923612044       17.4439412552
  H         6.5215237586        9.3788370855       16.5361107266
  C         6.1688032543        7.7324914866       17.8315147833
  H        14.0625035723        7.1143126299        5.9511428228
  H        14.5975573988        7.1340341723        4.3640677640
  C        15.5474319576        5.6377745884        5.4499683956
  H         5.9675182561        5.0901567861        3.2003166726
  H         6.4907885939        6.7030600254        3.6957857356
  C         6.8220991491        6.5198486067        1.6425925943
  N        11.5908869162       -0.5238092417        2.0602065466
  C        12.2291814144       -0.1278850312       -0.0721647093
  C        12.2530580329        2.0286922333       -1.1559598433
  H        11.8746777437        3.7258079642        0.0618230933
  H        12.4482273086        1.9773695866       18.2714729229
  H        10.8807514874        2.1243884475       17.5669193192
  H        11.9121416564        3.4528766866       17.4971688144
  S         5.8081056008        6.0781853585       18.2236742133
  C         6.0532833215        8.6971241305       18.9929912909
  H        15.3138748721        4.8667441391        6.1552163525
  H        15.9383986058        5.1042054571        4.5969507916
  C        16.7208572213        6.4088852207        5.9972924077
  H         7.2816549371        5.8880970573        0.9117485930
  H         7.5452907096        7.3017898083        1.7879610548
  C         5.4649502511        6.9688429764        1.0983452515
  S        11.8048703185       -1.9995349637        1.4607121357
  N        12.3343704792       -1.4881563256       -0.0093797730
  C        12.3594512219        0.5699940740       -1.3085154330
  H        12.4078623119        2.6104044402       -1.9982732856
  C         5.4261684054        6.6736175678       19.8201277013
  N         5.6758502812        7.9742849138       20.0480421852
  O         6.4268923642        9.8480339847       18.9562392957
  H        17.2001287249        6.8346763075        5.1770175491
  H        16.3501061162        7.2122931767        6.5732334109
  C        17.5241994305        5.3634000482        6.7627391846
  H         5.3237826073        6.6240252031        0.0775543895
  H         4.7340436981        6.3635875368        1.6908121801
  C         5.2608596334        8.4660193405        1.2209131455
  C        12.6253649021       -0.2343198673       -2.4664435795
  S         5.2769884992        5.7058793438       21.2445329575
  C         5.9582107790        8.5546135658       21.3873809073
  H        16.8863072119        5.0904478553        7.5991512620
  H        17.9023629455        4.5662401745        6.1496354176
  C        18.6153856905        6.0914816040        7.3649415131
  H         6.1077785270        9.0406692423        0.7222158765
  H         5.3937128017        8.8129351813        2.2616852285
  C         3.9555532180        9.1016398924        0.8191014746
  H        12.4618266974       -1.3167293129       -2.4462865781
  C        13.0002849211        0.1152140565       -3.6828556765
  H         5.3617388801        8.1190091725       22.1234889429
  H         5.5146237751        9.5150595335       21.3902369745
  C         7.4285572964        8.7769357895       21.8325378494
  H        19.1055076555        5.3826862560        8.0809621338
  H        18.1379541058        6.8788169964        7.8882943135
  C        19.6958206393        6.5481820176        6.3736055581
  H         3.8606900312        8.7128203158       -0.1829032955
  H         3.2384606423        8.5732660974        1.4231140726
  C         4.0392759664       10.6233301349        0.9425999397
  S        13.6749086205        1.5631707236       -4.2126397229
  C        13.1875950832       -0.9987808625       -4.6969029290
  H         8.0875036912        8.8352921177       20.9605758404
  H         7.7305797907        7.8958324155       22.4626576026
  H         7.5781658545        9.7323060318       22.2848770064
  H        19.3841865185        7.4476418217        5.8025377168
  H        20.6894231981        6.6793309344        6.7838395027
  H        19.6717232068        5.7763387754        5.5311780920
  H         3.5971256379       11.1057765841        1.8392140481
  H         5.0677854591       10.8670813084        1.0328363665
  H         3.8448290774       11.1351212119        0.0816181738
  C        14.1919941651        0.7420309770       -5.6959332737
  N        13.9356745214       -0.5383699324       -5.7314185915
  O        12.8134171448       -2.1563602316       -4.5447816979
  S        15.0362739528        1.6029564530       -6.8974701060
  C        14.1183367347       -1.2743594872       -6.9559226226
  H        14.1694174803       -2.3002939882       -6.6045379076
  H        14.9806639877       -0.9394644922       -7.5458236987
  C        13.0007923541       -1.0330188192       -7.9334613402
  H        12.1177653936       -1.3402217568       -7.3880864047
  H        12.8943020095       -1.6827519901       -8.8426829273
  H        12.9581553097        0.0196385639       -8.1913421789
  H        -2.5179002287       12.8014346893       17.0789039014
  C        -2.7937042846       13.7832331642       16.8393855398
  H        -1.9917214622       14.1228321139       16.1151388407
  C        -3.0548078248       14.6889819034       18.0269157383
  C        -4.0201843690       13.5757478535       16.0195379484
  C        -3.6869418896       13.9457932715       19.2516262398
  H        -2.1277281697       15.1543009750       18.3227194656
  H        -3.6450939181       15.5142934744       17.6512458816
  H        -3.9747552021       12.5458014036       15.5409596331
  H        -4.9156576311       13.6393807526       16.6516139319
  H        -3.9656703141       14.3381694636       15.2605751872
  C        -2.5418558283       13.3140730117       20.0050867219
  H        -4.4231651745       13.1998529893       18.8864905363
  H        -4.3356737852       14.6226994347       19.8623331455
  C        -2.8429494831       13.2198831916       21.4854772406
  H        -2.3405291133       12.3023608976       19.6089662595
  H        -1.6025429421       13.7796054616       19.9310197426
  C        -1.8332318755       12.5455394305       22.3452950600
  H        -3.8530767589       12.6867580335       21.6159042079
  H        -3.0920969736       14.2186697554       21.9142728612
  C        -0.6945956507       13.4818849917       22.7528955298
  H        -2.3437940551       12.1624003991       23.2365248331
  H        -1.4764212170       11.6793950839       21.8969710770
  C         0.5528986379       12.7195864151       23.3717015996
  H        -0.3686924068       13.9562201830       21.8207883907
  H        -0.9045745566       14.3138641627       23.3368910268
  C         0.9242906677       11.4748470453       22.6153565890
  C         0.1708619836       11.9088855488       24.5681010102
  C         1.8199635717       13.6097021869       23.5972370339
  C         0.6120849832       10.2848178533       23.3039304844
  C         1.3271647309       11.2036190584       21.3092663826
  C         0.1993783967       10.5814210464       24.6125167437
  C        -0.1337760822       12.5977705632       25.7144502623
  H         2.0816204058       14.2002554197       22.7065350861
  H         1.6360775095       14.3802133434       24.3770795120
  C         3.1171527176       12.8164991054       23.8780556482
  S         0.9877924724        8.8708075308       22.5045990981
  C         1.5350623677        9.8795629800       21.1300221282
  H         1.5072409097       12.0980956872       20.6519941079
  C        -0.1959111227        9.9495145133       25.7781227902
  H        -0.0011752789       13.6616003053       25.6864607015
  C        -0.4190485762       11.9567842504       26.8774677860
  H         3.4052227202       12.1178186982       23.1340326526
  H         2.8744268938       12.1393043459       24.7383337898
  C         4.3222156676       13.7238967006       24.1841171066
  C         2.2154509738        9.2800769481       19.9765563392
  C        -0.4748060773       10.6213939920       26.9559679596
  H        -0.1640215095        8.8664210565       25.8141001061
  C        -0.7779923497       12.4183810440       28.1321615025
  H         5.0653330014       13.1614923929       24.8117901010
  H         4.0192469428       14.5303206257       24.8089019507
  C         4.9273389782       14.3820549130       22.9582921675
  C         2.2720530882        7.8890270049       19.6753176593
  C         2.5656276519       10.1550868305       18.8761563674
  C        -0.7646934472        9.9688416285       28.2523438478
  C        -0.9913353888       11.3478794404       28.9452374945
  S        -0.9300732038       13.9105477873       28.9392318165
  H         5.4587546044       15.2368635245       23.3341589238
  H         4.3644412156       14.8601694425       22.1668703666
  C         5.8481472421       13.3740118189       22.3162818939
  N         2.0950934904        6.8714188289       20.5836738209
  C         2.5549833549        7.4313762234       18.4625828614
  C         2.9310281617        9.6884695683       17.5975083537
  H         2.5716448432       11.2127084956       19.0879706021
  C         0.4734708465        9.1769449428       28.8849152921
  C        -1.9937046667        9.0554430787       28.1363366117
  C        -1.4529660986       11.7875695772       30.2032258514
  C        -1.4885309770       13.1756778434       30.3277344508
  H         6.8494112701       13.7190540499       22.2247702572
  H         5.7390419309       12.4115491240       22.8221493477
  C         5.3819155202       12.9876925797       20.8963954205
  S         2.2247588332        5.4295553653       19.8485090109
  N         2.4172356060        6.0727498841       18.3496802119
  C         2.8715073908        8.2460983480       17.4001465785
  H         2.9897501595       10.3464354498       16.7540498937
  H         0.8397681545        8.4168049654       28.1374463140
  H         0.0765214371        8.6919089580       29.7514457572
  C         1.6131314073       10.1213688536       29.2199977205
  H        -1.7089923971        8.2681788756       27.3951369519
  H        -2.0247963241        8.6576996537       29.1671129732
  C        -3.3490788149        9.7212391228       27.7645831291
  H        -1.6830135876       11.0584370041       30.9483566689
  C        -1.8274485593       13.9271500552       31.5921258130
  H         4.5240865073       13.5762246613       20.5046754785
  H         5.1682848440       11.9133437007       20.9118058055
  C         6.4307447007       13.0765054784       19.8031246330
  C         3.0657425930        7.6046928952       16.0975188197
  H         1.8364030540       10.6040783969       28.2459049207
  H         1.3313850365       10.8497141618       29.9647790318
  C         2.7652123011        9.2195136438       29.5991474212
  H        -3.3593323595       10.3191451222       26.8433191859
  H        -3.6804909145       10.4285013668       28.5935852652
  C        -4.4522301910        8.6410305194       27.6315578782
  C        -1.9307396168       15.3029672149       31.7424557065
  C        -2.1786159932       13.1921460698       32.8484142584
  H         6.7760171833       14.1477599444       19.9426566474
  H         7.2712917274       12.4772052980       20.0601675789
  C         5.9203322077       12.8750137580       18.3499488518
  H         3.0457790714        6.5313398747       16.1639795491
  C         3.3286769588        8.0840513435       14.8472371795
  H         3.0146033339        8.5684959695       28.7045518491
  H         2.4202385136        8.6730088756       30.5149729415
  C         3.9761879599       10.0492041199       29.9016853000
  H        -4.0991224504        7.9626723366       26.9122295578
  H        -4.4930327812        8.2218171115       28.6571774985
  C        -5.8169762101        9.2319400629       27.2422046067
  N        -1.6151644063       16.2766902884       30.7764547256
  C        -2.2746082066       15.9829299984       32.9430235801
  C        -2.6442055283       13.8446006409       33.9875393645
  H        -2.1126908503       12.0950337490       32.7813148161
  H         6.5978058183       12.8363660377       17.5890542489
  H         5.3264606348       11.9551858580       18.3346216375
  H         5.2018303038       13.6411679663       18.0615096601
  S         3.8019052032        9.6816856210       14.3645165005
  C         3.5452453551        7.1532559548       13.7902877004
  H         3.9992320149       10.9458235768       29.3186072357
  H         3.9100275897       10.3786819845       30.9753011564
  C         5.2539855125        9.1635483919       29.7069277973
  H        -5.9290925811       10.0430622796       27.9471145625
  H        -6.6200793258        8.4799087466       27.4033139445
  C        -5.8596991193        9.6223211325       25.7474933924
  S        -1.6793296741       17.7594473262       31.3982258070
  N        -2.3399762754       17.4229688150       32.8466562711
  C        -2.6043099815       15.3104958710       34.0772986963
  H        -2.7179796294       13.2434455057       34.8859575603
  C         4.0313511052        9.1104745019       12.6782926877
  N         3.8317068513        7.7787677970       12.6122216992
  O         3.2287506280        5.9496534933       13.9638692905
  H         6.0553167703        9.6624385484       30.2858473817
  H         5.7457236357        9.3305134261       28.7233510330
  C         5.2613595243        7.6754548669       30.2282220501
  H        -4.8705663032        9.8364287134       25.4461341783
  H        -6.0294805242        8.6975670942       25.2666215621
  C        -6.8582683404       10.7837653740       25.5629788779
  C        -2.8110842748       16.0893830499       35.2599080665
  S         4.4135030036       10.0196842314       11.2289332074
  C         3.7747115726        7.0196750648       11.4161500302
  H         5.2679443475        7.7757128095       31.3337320201
  H         4.3005554667        7.1523895488       30.0387855787
  C         6.4761393464        6.8754323250       29.7557573004
  H        -6.5586383258       11.3863432761       24.6585220945
  H        -6.7465411453       11.5095821601       26.4080202230
  C        -8.2788350949       10.2430434365       25.3432594686
  H        -2.5360977573       17.1182639433       35.2619252139
  C        -3.2689006459       15.7440325153       36.5068698715
  H         4.3641113281        7.5118428896       10.6222636067
  H         4.2602366077        6.0009712664       11.5502504577
  C         2.3568713835        6.9451769470       10.8232117384
  H         7.3763528932        7.5094558522       29.5533085607
  H         6.3208272779        6.4367635108       28.7745844776
  C         6.8377314408        5.8670933540       30.8220529411
  H        -8.8137638988       10.6829756028       24.4806567067
  H        -8.3416621402        9.1541370640       25.1695974224
  C        -9.1771589653       10.7190419704       26.4423717356
  S        -4.0253188700       14.2610469304       36.9550196491
  C        -3.2438320500       16.7761599060       37.5566140660
  H         1.6819509522        6.5474866649       11.6112984046
  H         2.0909342586        7.9647239571       10.6262699488
  H         2.3488987548        6.3422712497        9.9300105813
  H         7.5621047215        5.2450824954       30.3250924575
  H         6.0114005916        5.2362542454       30.9817143102
  H         7.1940184189        6.2132497449       31.7439323310
  H        -9.1698120323       11.7414468488       26.5430717173
  H        -8.8079384735       10.3619999312       27.4446750015
  H       -10.1778474738       10.3605409892       26.3139896119
  C        -4.1637685982       15.0310325327       38.5603457018
  N        -3.7575861375       16.3138143347       38.6770901098
  O        -2.8010405848       17.9325654325       37.4295022731
  S        -5.0218057264       14.3259996606       39.9437404268
  C        -4.0184739549       17.1607967538       39.8726160185
  H        -4.0814238249       18.2760081496       39.6839586120
  H        -4.8135118476       16.9512630646       40.5942579475
  C        -2.7602644541       17.1715439028       40.7547062062
  H        -1.8662625687       17.3923381607       40.1765770169
  H        -2.7358045107       17.9524243787       41.4597390181
  H        -2.6438455196       16.2073122070       41.2076384910
