352
i=
  H         2.8273851753        3.7871076885       12.1923279747
  C         3.2147881248        2.8711260655       12.4462342122
  H         2.7038841115        2.2518710739       11.7311137055
  C         4.7112178983        2.7135469415       12.1799368951
  C         2.9021287274        2.6434222587       13.9592888492
  C         5.0659032404        3.0004524350       10.6982631614
  H         5.0791251469        1.7315506770       12.5599930673
  H         5.0898388490        3.5228018370       12.7895713741
  H         2.8989204047        1.5387545684       14.0762493804
  H         1.8802196746        2.9276606307       14.1536031315
  H         3.6011544998        3.1423842748       14.6301807676
  C         5.0946803021        1.7078981905        9.8586689722
  H         4.2518757288        3.4862718815       10.2325762234
  H         5.9257162256        3.6103109615       10.6289733897
  C         5.6072924439        1.9150015702        8.4182679420
  H         4.0698656280        1.3373766629        9.6726769385
  H         5.6659734181        1.0516061673       10.4475205973
  C         6.9774763470        2.6923358293        8.3730250064
  H         4.9652608099        2.4312028748        7.7515015331
  H         5.7186394149        0.9704448068        7.8714238485
  C         8.1232970689        1.9016549575        9.0829737100
  H         7.2718885420        2.8629970025        7.3304785220
  H         6.8968790337        3.6879222203        8.7599293950
  C         9.4280840651        2.7293166752        9.2102747463
  H         8.3631816166        0.9923442693        8.5321522225
  H         7.7523292548        1.7261305846       10.1046180197
  C         9.1980260417        4.0428839363        9.9416881764
  C         9.7931764105        3.3878241687        7.9225785300
  C        10.4701122406        1.9555484973        9.9915733597
  C         9.4102016975        5.1294921939        9.1295786083
  C         8.6925772157        4.4748981579       11.2043297359
  C         9.8610153585        4.7282059689        7.8826120651
  C        10.3027907732        2.7165926247        6.8003674450
  H         9.9512910875        1.6150175862       10.9173074168
  H        10.8703366211        1.0941310759        9.4198251241
  C        11.6950843478        2.7178207220       10.4838304065
  S         9.1051559922        6.6174943537        9.9310740460
  C         8.5063730586        5.8309826625       11.3653192073
  H         8.5601311685        3.7062105772       11.9654464168
  C        10.2035686658        5.3188294028        6.6619197566
  H        10.2840719986        1.6273638628        6.8175256758
  C        10.7083018019        3.3015880431        5.6779050064
  H        11.4912414771        3.6522024962       11.0197001778
  H        12.2180691830        3.0894270695        9.4857980594
  C        12.5855336978        1.7827291010       11.3631242344
  C         7.8857829590        6.4420795762       12.5026557332
  C        10.6109131205        4.6333049764        5.4986892215
  H        10.1260158455        6.3643452476        6.6040373389
  C        11.1237563596        2.8387938286        4.4417065291
  H        13.4604204523        2.3284882989       11.5184471135
  H        12.9217374324        0.8922928766       10.8258194748
  C        12.0676542515        1.3166259737       12.7328222029
  C         7.8954964027        7.8105795056       12.7287952445
  C         7.5049813800        5.5996011074       13.6453710057
  C        11.0411704781        5.2545044119        4.2299520297
  C        11.3691517623        3.8962601961        3.5921483154
  S        11.3436639339        1.2514959031        3.7922175403
  H        11.1047406999        0.7087683630       12.6906592899
  H        12.7688585952        0.6148100928       13.0898254814
  C        11.9185573078        2.4959033114       13.7228917914
  N         8.2082974532        8.8161409670       11.8178340144
  C         7.5723988383        8.3918914313       13.9507016598
  C         7.2469849938        6.1581923956       14.8695604165
  H         7.3580752148        4.4935333906       13.5143456097
  C        12.2969136277        6.0423397194        4.5089156410
  C         9.9055833024        6.1246506192        3.5020199629
  C        11.7590691290        3.4094918291        2.3084520655
  C        11.6912907043        2.0194283844        2.2293906060
  H        11.0505256097        3.2115729043       13.5613189691
  H        12.7832896018        3.1151569607       13.6691423323
  C        11.8224042681        1.8982321499       15.1323608219
  S         7.7550518696       10.2535518318       12.4433136029
  N         7.4978019697        9.7697252547       13.9427493023
  C         7.2076995119        7.6531945760       15.0920169708
  H         7.0117377186        5.5350606422       15.7326517272
  H        12.0383361401        6.9029834993        5.0900762964
  H        12.6150149781        6.4401973986        3.4693755383
  C        13.4218113599        5.2713605147        5.2669048141
  H         9.4497889132        6.8823846257        4.1939287239
  H        10.3312802982        6.8202943583        2.8188013938
  C         8.8313771252        5.3073387377        2.7263952689
  H        11.8964273243        4.1319753507        1.5374606813
  C        11.9619744671        1.3138071618        0.9294963694
  H        10.8254330773        2.1855538076       15.5619882808
  H        11.7356627059        0.8343267148       15.1295460953
  C        12.8031714340        2.4575618589       16.0492229790
  C         7.0719647827        8.3727836432       16.3564342737
  H        13.1148395458        5.1165826083        6.3402546711
  H        13.6683340445        4.3001522924        4.7128813552
  C        14.7138595508        6.0752557588        5.4495042412
  H         8.4666556000        4.3911736095        3.2581876369
  H         9.4470299123        4.9749544175        1.8855906741
  C         7.6311957023        6.2373349573        2.2792955092
  C        11.9948742784       -0.0944932391        0.8175788039
  C        12.1871340673        2.1093134324       -0.3287400742
  H        12.5390594156        3.4780172743       16.4226380721
  H        13.7570562685        2.4042044358       15.6173984258
  C        12.9401399207        1.8013309377       17.3843402580
  H         7.4417908230        9.3897287449       16.4316535098
  C         6.7669844464        7.9733843163       17.6277406009
  H        14.5140503118        7.0687861123        5.8822328798
  H        14.9518674403        6.2942823604        4.4037788719
  C        15.8874616416        5.2545830369        6.0108068245
  H         7.1472324408        6.8177135020        3.0198354535
  H         8.0172786429        6.9176658096        1.5193610832
  C         6.5346304023        5.4442527842        1.4715129921
  N        11.9540703940       -0.9763419009        1.8779234411
  C        12.3282391888       -0.7638506706       -0.3058442849
  C        12.4662276232        1.4097327843       -1.5046437269
  H        12.0854370720        3.1449555859       -0.3911400045
  H        12.9423295364        2.4582228543       18.2655264878
  H        13.8637721301        1.2645012629       17.3197328287
  H        12.2241257001        1.0364058395       17.5855492958
  S         6.4138053288        6.3685719610       18.0996485437
  C         6.6806928935        9.0335738087       18.7468358295
  H        15.4210629886        4.7390602505        6.7926052028
  H        16.2092188098        4.6089296701        5.2294698906
  C        17.0830822226        6.0615933427        6.6555661105
  H         6.4707708188        4.4751162518        1.7920703545
  H         6.8729180567        5.3359381833        0.4033779564
  C         5.1802730542        6.1246533779        1.4879909192
  S        12.0963514513       -2.5259786888        1.3586285147
  N        12.3714126007       -2.0906011806       -0.1457316703
  C        12.6245820464       -0.1112266532       -1.5542999126
  H        12.6168829483        2.0233545204       -2.3753055256
  C         6.0975773072        7.0930948560       19.7309104935
  N         6.1738326284        8.4469458980       19.8281524127
  O         6.6887387612       10.2623587431       18.5583788367
  H        17.5636371515        6.6366591294        5.8416449529
  H        16.7125843299        6.7394870151        7.4612959112
  C        18.0890876991        5.0378603446        7.2104786779
  H         4.3909189218        5.5519564081        1.0360182668
  H         5.0040711193        6.2267163177        2.5989904361
  C         5.2922062794        7.5238320137        0.8054048653
  C        12.9410911192       -0.9373718947       -2.6244619178
  S         5.6094298950        6.2421564889       21.2061454000
  C         6.0307472730        9.1377796804       21.0796901056
  H        17.9628643799        4.8525108612        8.2681305209
  H        17.9056763891        4.1075863846        6.7664738445
  C        19.5648793877        5.6342312854        6.9797027451
  H         5.1986287531        7.3363336042       -0.3111871065
  H         6.2897425426        7.9337224201        0.9367923028
  C         4.1628471490        8.4393534076        1.2765625794
  H        12.5749657760       -1.9180865951       -2.6427419387
  C        13.3892065610       -0.5337321059       -3.9027420931
  H         5.1479147133        8.7952401192       21.7097734201
  H         5.8856722784       10.1756376332       20.9019666862
  C         7.2576089796        8.9943012272       21.9365667323
  H        20.2741595155        5.3404243766        7.7257855686
  H        19.3552134402        6.7021371530        7.0916636749
  C        20.2025912010        5.2447123800        5.6295169853
  H         3.9605166081        9.1900726975        0.5548669781
  H         3.3223195231        7.7960376907        1.3782050052
  C         4.4495637590        9.1221295718        2.5841089302
  S        13.9218564945        0.9954091625       -4.4813660051
  C        13.5030986823       -1.6514751252       -4.8752433139
  H         7.9104604540        8.2867608603       21.4622415253
  H         7.0383080203        8.6354933684       22.9741743773
  H         7.8499886419        9.8854810768       22.0684232252
  H        19.5447436303        5.7029358206        4.8480882907
  H        21.1868655518        5.7269239231        5.4763336707
  H        20.2590020951        4.1946896605        5.4245750807
  H         4.0066844891       10.1300422190        2.7261858143
  H         4.2843002047        8.5226981901        3.4475238240
  H         5.4889739903        9.4835472136        2.5973898274
  C        14.1963900758        0.0998691897       -6.0284363626
  N        13.9508348960       -1.1902978421       -6.0102413104
  O        13.2507487177       -2.8437383199       -4.7235238347
  S        14.6536469163        0.7744664991       -7.5952323459
  C        13.8741750614       -1.9432018947       -7.2781464859
  H        14.1375196664       -2.9411257320       -7.0370516784
  H        14.6537365104       -1.7470205724       -8.0223632179
  C        12.4695156199       -1.9818370436       -7.9445120259
  H        11.7165171033       -2.3946420649       -7.3078397636
  H        12.6056846185       -2.7329212072       -8.7321209159
  H        12.2848982559       -1.0712395479       -8.4044620370
  H        -3.9905431323       14.3267957363       16.6463805210
  C        -3.2119658583       13.5329522478       16.4060161902
  H        -3.7292507749       12.5625066286       16.3191826894
  C        -2.2147385089       13.4243991648       17.5680103367
  C        -2.5706335231       13.8487510378       15.0392988264
  C        -2.8839885714       13.5593963108       18.9320096186
  H        -1.6562382386       12.4646645029       17.4814774169
  H        -1.4327008680       14.1205524191       17.3620817962
  H        -1.4813153134       13.9041789517       15.1472024532
  H        -2.6919913292       13.0666872920       14.3264550243
  H        -2.9254934373       14.7613765445       14.5403463284
  C        -1.7998074954       13.4908221190       19.9681136212
  H        -3.4560926050       12.6205194468       19.1295257863
  H        -3.4426813300       14.4875848535       19.0984954633
  C        -2.3428231752       13.4880817870       21.3427382069
  H        -1.1793298435       12.6732753121       19.8342748734
  H        -1.0264150774       14.3081431751       19.8196399290
  C        -1.2959233114       12.8942160065       22.3044665745
  H        -3.1165399409       12.7772278893       21.4123421694
  H        -2.7847543743       14.4046246257       21.5071770304
  C        -0.0340166172       13.7472668146       22.5673665013
  H        -1.7878613959       12.6924356787       23.2768626928
  H        -0.9862303008       11.9072251754       21.9512085628
  C         1.2017513519       13.0300409508       23.3078812564
  H         0.4044571443       14.1316159975       21.6192027020
  H        -0.3007723840       14.5359395220       23.2516149285
  C         1.5346588303       11.6140691155       22.6347653441
  C         0.8183117332       12.3164194886       24.5634832190
  C         2.5064990031       13.9091392482       23.5467155054
  C         1.3663651816       10.5610719503       23.4826114485
  C         1.9952121901       11.2386550159       21.4085417035
  C         0.8803525120       10.9828240677       24.6779670343
  C         0.3315975511       12.9017102505       25.7483603531
  H         2.6963723815       14.3997723793       22.5933531231
  H         2.2257865397       14.7171833539       24.2154153439
  C         3.6828506348       13.1473332145       24.1938935525
  S         1.6042937813        9.0005505061       22.7624836946
  C         2.1878119536        9.8632439370       21.3529767336
  H         2.1356715081       11.9913473568       20.5915991500
  C         0.4810718739       10.3281223140       25.7970994706
  H         0.2488382926       13.9216259602       25.6977640041
  C         0.0621351726       12.2424434174       26.9129205703
  H         4.0249853699       12.4242898631       23.4876752038
  H         3.4679857319       12.6565434095       25.1248630582
  C         4.9399972711       14.1236378966       24.4661060066
  C         2.6315165006        9.1998447244       20.0288224509
  C         0.1346584704       10.9283373312       27.0304818241
  H         0.6436457858        9.2438968615       25.8414479267
  C        -0.4153683861       12.6210580856       28.1146164483
  H         5.6645803806       13.5580325088       25.0639122718
  H         4.6745842924       15.0691569705       25.0240380888
  C         5.6732525477       14.5380929673       23.2172940571
  C         2.6721672999        7.7781434893       19.7961974478
  C         3.1092206122       10.0354001200       18.9407149754
  C        -0.2419529748       10.2053191506       28.2744218210
  C        -0.7121223057       11.5422184465       28.9091566465
  S        -0.6827093013       14.1416510657       28.8523506757
  H         6.3520764938       15.3351642923       23.4618866787
  H         4.9456091775       14.8286350699       22.4782319006
  C         6.4480135305       13.3919499027       22.5275212765
  N         2.2776695060        6.8951524950       20.7839321333
  C         2.9726760356        7.2582735912       18.5916774148
  C         3.4295688376        9.4808621744       17.7238592058
  H         3.2724490643       11.1008090145       19.1221339454
  C         0.7638560422        9.4488080076       29.1386009853
  C        -1.5150696856        9.3303508292       28.1713621483
  C        -1.2591422330       12.0131354367       30.1559609030
  C        -1.2566830190       13.3596024339       30.2721984450
  H         7.4845822486       13.4740648882       22.8391608860
  H         5.9977523085       12.4213821559       22.6267757647
  C         6.3613140256       13.7639175425       21.1088660472
  S         2.4162371265        5.4412220317       20.1835826978
  N         2.9140093617        5.8503318584       18.6874056734
  C         3.2508830419        8.0562912494       17.4538610670
  H         3.8538946041       10.0864740040       16.9664717378
  H         1.2692040743        8.6356219990       28.5979647323
  H         0.1836438949        8.9890503142       29.9626369566
  C         1.8822748877       10.4467668414       29.7232966549
  H        -1.2972451875        8.3784755254       27.6806260695
  H        -1.7904667463        9.0312454791       29.1950653057
  C        -2.7122403619        9.9675498671       27.4426392581
  H        -1.3205997799       11.3186545804       31.0000892981
  C        -1.4831404043       14.0950021696       31.5679385948
  H         6.4141996229       14.8297981955       21.0721089035
  H         5.3596949517       13.4123105563       20.7629041165
  C         7.5307580521       13.1630771354       20.4173410865
  C         3.4715204989        7.3759126382       16.2412762626
  H         2.1566188666       11.2329962542       28.9895001942
  H         1.4491694637       11.0005702751       30.5881622559
  C         3.0893324230        9.6772206217       30.2673464692
  H        -2.5466624209       10.5631762504       26.5326170449
  H        -3.1626714660       10.5720675505       28.1350567331
  C        -3.8006110159        8.9230648189       27.2124549945
  C        -1.3330077744       15.4560988454       31.7969468139
  C        -1.6802095137       13.2740312991       32.7990739759
  H         8.4594952517       13.6187750255       20.6990740936
  H         7.5949314838       12.1475216962       20.7816150340
  C         7.3939081880       13.0294245905       18.9057466055
  H         3.2923676246        6.3009192956       16.2010529830
  C         3.8246643338        7.7258964979       15.0117441956
  H         3.5020156101        9.1565763093       29.4019089372
  H         2.8634088709        8.9375073801       31.0210514114
  C         4.0961671444       10.6700599365       30.9056066017
  H        -3.5641632638        8.2229857846       26.4264228774
  H        -3.8353960297        8.3907713242       28.1016585847
  C        -5.1794503567        9.4787168345       27.0671477129
  N        -1.1708406155       16.4113904499       30.8102842321
  C        -1.6220499430       16.0373255664       33.0209855029
  C        -1.8236612778       13.8733661316       34.0713427323
  H        -1.6531211899       12.2136951036       32.7348613629
  H         8.1665739006       12.3561994541       18.4450626624
  H         6.3550865966       12.7730049197       18.5464823761
  H         7.6015470477       14.0128790907       18.5506678043
  S         3.8429003554        9.3326445960       14.4471903836
  C         4.1171819349        6.6837155401       13.9584740881
  H         3.8953446465       11.6657999886       30.4616599818
  H         3.7938943706       10.8667974467       31.9777846804
  C         5.5844120452       10.3318206737       30.8419306719
  H        -5.3595227344       10.1634934876       27.8630279886
  H        -5.9911346389        8.7603637998       27.0895212896
  C        -5.2753511274       10.2239947688       25.7048422054
  S        -1.2294410736       17.9151866292       31.4684807834
  N        -1.6743498059       17.4089924021       32.9733428364
  C        -1.8153030666       15.3390970851       34.2671035481
  H        -1.8626797278       13.2315225514       35.0188165847
  C         4.2728067899        8.6515673371       12.9027765719
  N         4.2881259856        7.3228566192       12.8292697660
  O         4.1321642938        5.5124483416       14.1388255178
  H         6.1570397764       11.0543544621       31.3759371643
  H         5.9410277182       10.2519287214       29.8041475396
  C         5.8651032123        8.9572634726       31.4712028892
  H        -4.4826957212       11.0254419366       25.7954692938
  H        -5.0321712435        9.5484247653       24.8835416319
  C        -6.5574190602       10.9707916344       25.3801370376
  C        -2.0290262888       16.1099960435       35.4436218344
  S         4.5209212728        9.2883284370       11.3383269398
  C         4.2844190446        6.4974911194       11.5807358390
  H         6.7104333407        8.9738501108       32.2095866815
  H         5.0364590045        8.6799642508       32.1434941718
  C         6.0932746098        7.9755133857       30.3632510248
  H        -6.3448484127       11.7989050226       24.7292876559
  H        -6.9617281210       11.4224241253       26.3524155277
  C        -7.7279694837       10.1790100010       24.7894283197
  H        -1.8671980039       17.1312728307       35.3158547610
  C        -2.5782793441       15.6030532532       36.6067925511
  H         4.9086983017        6.8217511034       10.7836368119
  H         4.5496832415        5.5070228998       11.8910181233
  C         2.8758900845        6.3674660159       10.8936310267
  H         6.8688807564        8.3290561865       29.6667349193
  H         5.2385666882        7.9285532250       29.7082707616
  C         6.6300353806        6.5755745388       30.8042714078
  H        -7.8234391368       10.4494052636       23.7397209658
  H        -7.5744486784        9.0649264081       24.7950389348
  C        -9.0205676168       10.2825528789       25.6381853476
  S        -3.2191188271       14.0645414648       36.9100640497
  C        -2.6915687309       16.5886655536       37.7540814911
  H         2.3148197353        5.4033223550       10.9632786260
  H         2.2260998913        7.0726003555       11.3079779545
  H         2.9716044745        6.5692020914        9.8569674931
  H         7.7230120230        6.7255276001       30.7072865832
  H         6.2693982280        5.7861364999       30.2367107788
  H         6.4336306729        6.4045092627       31.8578423153
  H       -10.0441780077       10.3575603662       25.1190101521
  H        -8.9644431344       11.1087536915       26.3756583954
  H        -9.1683221821        9.3899153757       26.2571916613
  C        -3.4333930713       14.6749146118       38.5605167520
  N        -3.2610117153       15.9942356248       38.7625453053
  O        -2.4593894686       17.7854916094       37.7462555626
  S        -4.3398716022       13.9029213684       39.8178675954
  C        -3.6033957984       16.7464686034       39.9889074826
  H        -3.9683392911       17.7760461455       39.8518099148
  H        -4.3414663862       16.3524632806       40.6268886979
  C        -2.3048804795       16.7695109787       40.8227972909
  H        -2.1930915510       17.7413882948       41.3780702687
  H        -2.2452312383       16.0211477255       41.7008044081
  H        -1.4574178238       16.7922693367       40.1221071159
