352
i=
  H         4.2850830467        0.9795350781       12.1849267349
  C         3.8116545750        1.9061919151       12.3042121999
  H         4.5088031283        2.7154301771       12.3944561390
  C         2.7525298759        2.1801531259       11.2037135872
  C         3.1245192308        1.7530254178       13.6156429976
  C         3.4404612803        2.5977978829        9.9372244267
  H         2.0740605137        2.8973034846       11.5866207306
  H         2.1787856855        1.3023587354       11.0526740408
  H         2.5595535860        0.7906951969       13.8099558936
  H         2.3897772395        2.5026521599       13.7848866608
  H         3.8904213201        1.8186964600       14.4225744911
  C         4.2719515425        1.3488312973        9.4353997084
  H         2.7976502332        3.0655655210        9.1382930384
  H         4.0532265198        3.4525652753       10.1874605494
  C         5.0234863808        1.5401886841        8.0190953035
  H         3.5400600963        0.5532648558        9.2681251174
  H         4.9276079849        0.9175985801       10.1873050254
  C         6.1965302419        2.5157106873        8.1868350055
  H         4.2518136388        1.9033279268        7.2986934155
  H         5.4936593369        0.6348612980        7.6374677853
  C         7.3781139745        1.7565664221        8.8488251540
  H         6.4738788590        2.9405790815        7.1847116431
  H         5.9442400777        3.4082906926        8.7386032120
  C         8.6508455843        2.5902063031        9.1169683184
  H         7.7067557833        0.8785216253        8.2822900973
  H         7.0246259837        1.3037750928        9.7139397392
  C         8.3270249035        3.9614312513        9.7930305395
  C         9.0911159062        3.3066356437        7.8355944759
  C         9.7509847995        1.7925848311        9.9012128133
  C         8.6136739819        5.0983681601        9.0642714714
  C         7.8724496138        4.2803180069       11.0661104058
  C         9.1354322682        4.6858542861        7.8291511965
  C         9.5162768630        2.7480836286        6.6577921500
  H         9.2918751517        1.4611552742       10.8611332711
  H         9.8764882906        0.9311705212        9.3311052878
  C        11.1571057500        2.5247563419       10.2128646101
  S         8.1671894709        6.5662121146        9.8057826754
  C         7.6338677595        5.6475692511       11.1572062473
  H         7.8727582694        3.4983432274       11.9209300730
  C         9.6273249971        5.3308852755        6.7345678595
  H         9.6844133736        1.7213245002        6.6563859872
  C        10.0436217569        3.4076287541        5.5887233266
  H        11.1279224139        3.5868987832       10.5245482446
  H        11.7520471217        2.5286023918        9.3050479757
  C        12.0622814052        1.8312963155       11.2022833376
  C         7.1822958744        6.3099707405       12.4559340541
  C        10.0180161088        4.7815495567        5.5283215049
  H         9.6628440680        6.4180627027        6.7578340193
  C        10.5404037180        3.0405311540        4.3566634773
  H        13.0607478669        2.2864883326       11.2685831858
  H        12.3155177233        0.8257807615       11.0180985033
  C        11.4118423582        1.8321409421       12.5590420732
  C         7.2442669054        7.6933672227       12.7277864897
  C         6.7444147349        5.3776840574       13.5483902937
  C        10.6062110558        5.4555429801        4.3073180547
  C        10.7533463066        4.1150879140        3.4970315349
  S        10.6984345781        1.5112091613        3.5959711514
  H        10.9393185010        2.8849095902       12.7632611260
  H        10.5321613541        1.2633336425       12.7309255516
  C        12.3536664326        1.5082953901       13.6013772438
  N         7.6607429088        8.7086188600       11.9072962122
  C         6.9406367970        8.1549267183       13.9841345282
  C         6.4602650630        5.8693985458       14.7953195634
  H         6.5438092964        4.3330491084       13.3535605787
  C        11.8986598873        6.2428246937        4.6010889197
  C         9.5968952397        6.3556408771        3.4486367486
  C        11.0284522723        3.7283642765        2.1750405948
  C        11.0657765057        2.3511736270        2.0677682146
  H        13.2104992984        2.1566780720       13.5660454352
  H        12.6797726260        0.5277586269       13.3340496175
  C        11.6560386752        1.6560673633       14.9467295825
  S         7.4707932986       10.1526588089       12.5717922867
  N         7.0663763819        9.5916169619       14.0550872737
  C         6.5897372855        7.3300767215       15.0427185705
  H         6.1235176275        5.1228287767       15.5321987607
  H        11.7662958271        6.9695868923        5.3857247108
  H        12.2772951660        6.7910129071        3.7391174589
  C        13.0836016730        5.3755696257        5.0356925740
  H         9.2546903630        7.0540093742        4.1758643383
  H        10.1145628231        6.8926691172        2.6743502717
  C         8.4296713115        5.5156426587        2.7732495480
  H        11.1858324553        4.4509108115        1.4100531781
  C        11.3821753803        1.6084268109        0.7861541316
  H        11.1405206991        2.5993392193       15.0656374869
  H        10.8781191711        0.9306134640       15.0508353401
  C        12.6826449507        1.4441291209       15.9974766247
  C         6.3468464606        7.9992206645       16.2844112497
  H        12.7969774018        4.9932000384        5.9581470161
  H        13.3288148744        4.6309741377        4.2478319613
  C        14.3790985711        6.2087061353        5.1368327956
  H         8.0125506199        4.7714903009        3.5028345882
  H         8.8160977601        5.0595280327        1.8780940871
  C         7.3483753555        6.4778156225        2.2582908091
  C        11.5449523583        0.2541420624        0.6697254554
  C        11.6870570374        2.4052587801       -0.4193320959
  H        13.6171342335        1.9104786243       15.7676157325
  H        12.9457921694        0.3953846970       15.7852524041
  C        12.1486119138        1.5260785731       17.3895092737
  H         6.5701235929        9.0287950198       16.2123216356
  C         6.0742041591        7.5699469546       17.5529728357
  H        14.3073861849        7.0616299164        5.8123830847
  H        14.6393951392        6.5281189317        4.1201465702
  C        15.4929021513        5.3516751696        5.6103273029
  H         6.9314143929        7.1034550460        3.0452242825
  H         7.7953609992        7.1905426798        1.5447496689
  C         6.0961245874        5.8521191290        1.6747223849
  N        11.4431995913       -0.6957035741        1.6622563243
  C        12.0125444239       -0.3324152234       -0.4857334516
  C        12.0199615076        1.8162926322       -1.6054389812
  H        11.6651645762        3.5073470499       -0.3445177041
  H        11.9292665097        2.5503386516       17.7493966987
  H        12.8075563702        1.1215250312       18.1841426412
  H        11.1731208439        1.0544320887       17.3957241510
  S         5.7567260498        5.9061913700       18.0982036808
  C         6.0389290893        8.6296830246       18.6317577850
  H        15.0712814688        4.5540731818        6.1469382383
  H        15.9606866618        4.9258251905        4.6705840294
  C        16.6275317785        6.1217688376        6.3478538889
  H         5.4993604980        5.2094046477        2.3651322157
  H         6.3846332335        5.1015877008        0.9328603530
  C         5.1637353270        6.7595795395        0.9184008346
  S        11.7853951558       -2.1665693188        1.1294424405
  N        12.2505931573       -1.6882523723       -0.3290479882
  C        12.1612462186        0.3385887912       -1.7187208594
  H        12.2513112581        2.4992541217       -2.3979705755
  C         5.4951767504        6.6597111779       19.6801395678
  N         5.7848236994        7.9694160396       19.8025138163
  O         6.2690913454        9.8591768233       18.4502545138
  H        17.1103083271        6.7612215912        5.6605091902
  H        16.2524435517        6.7531454765        7.1703009580
  C        17.6723570318        5.2153173042        6.8674049459
  H         5.6601063974        7.1559244453        0.0874220585
  H         4.2878828367        6.2646509688        0.5217873513
  C         4.5693401548        7.8097810678        1.9590554169
  C        12.5064217834       -0.3707491338       -2.9101109114
  S         5.2635447361        5.7801686476       21.1610780371
  C         5.8954748392        8.7327539931       21.0333657167
  H        17.3939429312        4.8244496519        7.7853368024
  H        17.8108001875        4.3843119612        6.2345165728
  C        19.0194350955        5.8970521350        6.9625580150
  H         4.9546615317        7.5530710354        2.9312661080
  H         3.4831879274        7.6150381655        2.1398301660
  C         4.7667342497        9.3355906233        1.5678294340
  H        12.3317402870       -1.3871641652       -2.8582086599
  C        13.1523210759       -0.0024032961       -4.0821361185
  H         5.1005225431        8.3704005319       21.7331395564
  H         5.8704300661        9.7924887912       20.8375939461
  C         7.2886726469        8.6265508331       21.5618151632
  H        19.7506979492        5.2173879631        7.4917238407
  H        18.9854772455        6.7817229363        7.6219574382
  C        19.7367238885        6.2273791902        5.6612222747
  H         4.8607732989        9.9698888282        2.4910370022
  H         5.6947764371        9.4336478967        1.0074281332
  C         3.7291953505        9.9251309677        0.6275423160
  S        13.6115536892        1.5385416881       -4.5039037252
  C        13.3198529929       -1.0626001589       -5.1525343499
  H         7.4409561347        7.7507398506       22.1104763472
  H         7.6037087474        9.5461817682       22.1834163265
  H         7.9645690282        8.4440146095       20.7492529436
  H        20.0516133133        7.3182702733        5.6507910700
  H        20.6007317288        5.6289332527        5.5778193400
  H        19.0715680852        6.0228795950        4.7969323106
  H         2.7321832657        9.5651039698        0.9106016654
  H         3.6790797660       10.9957299253        0.6297141827
  H         3.9748527118        9.5646413782       -0.3451375121
  C        13.9513315493        0.8704452307       -6.0854626849
  N        13.8476558759       -0.4573855595       -6.2181609582
  O        12.8973689203       -2.2096252446       -5.0481643674
  S        14.7677688046        1.7443932729       -7.3358370093
  C        13.9085677112       -1.1763578527       -7.4567348143
  H        13.9995797606       -2.2315934605       -7.2816518219
  H        14.7526712571       -0.8406461976       -8.0029125270
  C        12.6760464295       -1.0135916781       -8.3661144532
  H        12.5403985286        0.0320953485       -8.5683448297
  H        11.7354282220       -1.2908068332       -7.9282001466
  H        12.8297248169       -1.3552684138       -9.3392656933
  H        -3.3038601868       14.9573422603       15.9523558618
  C        -3.4367620639       13.8838047943       16.2461643011
  H        -4.3917287882       13.6389196603       16.6741278377
  C        -2.3729441666       13.7762308620       17.3609089776
  C        -3.1263851406       13.0336358794       14.9775933207
  C        -3.0736179949       13.5743498959       18.7147861106
  H        -1.6381234275       12.9789000796       17.0527591354
  H        -1.8122975217       14.7502155871       17.3897733879
  H        -3.6789586748       12.1094120746       15.0442142298
  H        -3.4766890288       13.5067143174       14.0289581281
  H        -2.0523885700       12.8229497379       15.0046466099
  C        -1.9626231977       13.2557722660       19.7726029958
  H        -3.9052136162       12.9097486988       18.6729954333
  H        -3.5912676464       14.5364930795       19.0286784126
  C        -2.6257977733       13.2310280164       21.1945506865
  H        -1.4760076729       12.3559118418       19.5168172595
  H        -1.2300077299       14.1083188717       19.7409765226
  C        -1.6890127264       12.5680177250       22.0939719412
  H        -3.5011468180       12.5138999818       21.0828083526
  H        -2.8895137788       14.1886174547       21.5488344541
  C        -0.4477152971       13.3944584094       22.4762845166
  H        -2.1707889872       12.2696606000       23.0879407374
  H        -1.3752172698       11.6028048758       21.6595091243
  C         0.7434878489       12.7150500159       23.1946084569
  H        -0.0599162507       13.9352187198       21.6588742519
  H        -0.6999451401       14.2543256489       23.1332945604
  C         1.0838437777       11.3617658953       22.5992948471
  C         0.2922661118       12.0886285653       24.4707470329
  C         1.9589566542       13.5878982527       23.2777182485
  C         0.8963290306       10.2669146437       23.4527176186
  C         1.5788323239       10.9718243462       21.3281896981
  C         0.3759272664       10.7359186146       24.5974074467
  C        -0.1791243890       12.7496158360       25.6238648328
  H         2.2871430068       13.8811026686       22.3064114730
  H         1.8118870295       14.4882909871       23.8108949216
  C         3.0733414134       12.8773434231       24.0462193469
  S         1.4111117292        8.6944636487       22.7385418963
  C         1.7625218463        9.5821210688       21.2419997964
  H         1.6425889758       11.6240513241       20.5009633230
  C        -0.0275618574       10.1478113761       25.8017771362
  H        -0.2100131821       13.7817022994       25.4598711984
  C        -0.4308597078       12.1361443075       26.8453840760
  H         3.4760955040       12.1734289070       23.3781071920
  H         2.7972867116       12.2708842909       24.8996565427
  C         4.2576382777       13.7918444520       24.2782230635
  C         2.2437330706        8.7787374495       19.9565457244
  C        -0.3935274933       10.7960503977       26.9734185718
  H         0.0908409464        9.0204029711       25.8975385049
  C        -0.7876026066       12.5268854713       28.0959356729
  H         5.0389936878       13.3920115827       24.9243176194
  H         4.0026585811       14.7603714819       24.7241809859
  C         5.0026993706       14.2264158633       22.9722036896
  C         2.1896568628        7.4049190244       19.7274740435
  C         2.6196031859        9.5388653699       18.7191725644
  C        -0.6864407122       10.1436248534       28.2307070823
  C        -0.8437712707       11.4517806000       28.9627452827
  S        -1.0153696683       14.0427202116       28.8587635327
  H         5.2244732050       15.2305292547       23.0818801781
  H         4.4542140752       14.1922931465       22.0990663746
  C         6.3700678509       13.4492188498       22.6956844613
  N         1.8096760230        6.4872198392       20.7123410510
  C         2.4460976688        6.7723743285       18.5275052410
  C         2.9701719920        8.9531696868       17.5006498892
  H         2.6958322274       10.6534756909       18.8313884990
  C         0.5031596925        9.2167889858       28.8044384811
  C        -1.9687019912        9.2978898116       28.0812204254
  C        -1.1910525624       11.8616558252       30.2589160053
  C        -1.3523492209       13.2365049319       30.3047548495
  H         7.0480850294       14.1645414539       22.2176043855
  H         6.8928680513       13.1544549470       23.6636461986
  C         6.1008841146       12.3688866731       21.6880783224
  S         1.7921961643        5.0052419186       20.0142015723
  N         2.2710525227        5.3602617961       18.4971529754
  C         2.8029811719        7.5266408192       17.3651253463
  H         3.2964296267        9.5532344329       16.6880117515
  H         0.7899908407        8.5166338177       28.0335251890
  H         0.0712530232        8.5917200011       29.5865490242
  C         1.7609931976        9.9255278983       29.2481031716
  H        -1.8340018909        8.4378164166       27.4299973604
  H        -2.3038116697        8.9698188590       29.0529806487
  C        -3.0875378126       10.1786616398       27.4981222312
  H        -1.4635327306       11.1838562370       31.0264216484
  C        -1.6760259122       14.0889432456       31.4889200005
  H         5.0580330324       12.0325908497       21.6814304350
  H         6.7571137460       11.4588404526       21.8913040903
  C         6.5640958956       12.7648426128       20.2403571306
  C         2.9588840271        6.8031712765       16.1603021036
  H         2.1176562204       10.6117035546       28.4440698585
  H         1.5641285741       10.4931729862       30.1742650214
  C         2.9283884988        8.9814493328       29.5963338153
  H        -2.9056401417       10.4693414337       26.4237176652
  H        -3.2637986532       11.1135488623       28.0905056563
  C        -4.4504191985        9.4799564885       27.4858357880
  C        -1.6095946926       15.5307000866       31.6092550392
  C        -1.9559435364       13.3729273897       32.7328831450
  H         6.1317217606       12.1640197784       19.4369201810
  H         6.2229682767       13.7811382170       19.9860714838
  C         8.0519488166       12.5870393284       19.9544951026
  H         2.6803396317        5.7318742876       16.1837875903
  C         3.1972349588        7.2309747133       14.8709464717
  H         3.2936583781        8.5194650419       28.6901393341
  H         2.5431104864        8.2181323489       30.3216486559
  C         4.1089183998        9.6681312669       30.2957269120
  H        -4.3760341880        8.5630480214       26.8615012148
  H        -4.6986675250        9.0858423423       28.4270085133
  C        -5.5045349398       10.4529421418       26.8648783178
  N        -1.3476262084       16.4671289200       30.5629179798
  C        -1.8362462748       16.2456603624       32.7498927638
  C        -2.2132218271       14.0525982240       33.8758777980
  H        -2.0293244551       12.2868251040       32.7785371668
  H         8.3459331336       13.1876022614       19.0928623502
  H         8.6712895868       12.8278156091       20.8505925972
  H         8.2880499455       11.5931862665       19.5817316479
  S         3.5799937934        8.8020254932       14.3739275611
  C         3.3942883950        6.1095336799       13.8719184088
  H         4.4374447218       10.4757431126       29.6855788538
  H         3.8710694277       10.1935962405       31.2567167529
  C         5.3043424071        8.6857213607       30.5328293356
  H        -4.9620879171       11.0004043947       26.1641586417
  H        -5.9906907270       11.2001460689       27.4820170547
  C        -6.5799614256        9.6444591483       26.1548085624
  S        -1.2320499123       18.0226604127       31.0487832654
  N        -1.5397526337       17.6138511275       32.6698093878
  C        -2.0856654101       15.5391044849       33.9867951372
  H        -2.3278965988       13.4024916102       34.7981211323
  C         3.8692780396        8.0424339841       12.7907488780
  N         3.7065578052        6.7225113047       12.6981235289
  O         3.2462603217        4.9308455125       14.0416961114
  H         6.2938442787        9.2247682670       30.4968603585
  H         5.2367232966        8.0016971754       29.7186548710
  C         5.1630406910        7.7632255854       31.7818033727
  H        -6.2906458095        9.2279995066       25.2137676514
  H        -6.7892973234        8.7945672624       26.8047904029
  C        -7.7935145461       10.4883683609       25.7528438800
  C        -2.3002172206       16.2935661725       35.1658239935
  S         4.3326256230        8.8002137724       11.2718928971
  C         3.7183741974        5.9851659614       11.4598443972
  H         6.0454266401        7.9284237603       32.3323920810
  H         4.3559821164        8.1721093455       32.3597294165
  C         5.0425632263        6.3526013327       31.4165372613
  H        -7.5667821794       11.1157598543       24.9513494998
  H        -8.0806153265       11.1158157743       26.5815388191
  C        -9.0227284869        9.5732494431       25.3245285492
  H        -2.3366546643       17.3860923485       35.1594700865
  C        -2.8727129979       16.0102127678       36.4011185369
  H         4.5945184360        6.0881158429       10.8176121431
  H         3.7705457987        4.9573106753       11.6278263118
  C         2.4128568134        6.0229116793       10.7546020852
  H         4.1555626678        6.1802458989       30.7626548066
  H         4.8723131116        5.7153199068       32.3168957737
  C         6.2937092294        5.7034428412       30.9708491365
  H        -9.4424636907        9.8278327924       24.2757553337
  H        -8.7306327030        8.5651579749       25.3110512182
  C       -10.1812563240        9.9864848336       26.2462569063
  S        -3.3938351386       14.5181949317       37.0786977672
  C        -3.1359144837       17.1536262187       37.3433789487
  H         2.1242015083        7.0624027552       10.6751544765
  H         2.4725087049        5.4929591608        9.7531304295
  H         1.6865554753        5.3390460260       11.2138897055
  H         7.1088720931        5.9105541946       31.6564122916
  H         6.4586228379        6.0381919239       29.9193591772
  H         6.1684729875        4.6160206512       30.8458003452
  H       -10.0128933615        9.7570846053       27.2952271063
  H       -11.0664220033        9.3653565195       26.0588159137
  H       -10.5884913070       11.0240339746       26.1803670328
  C        -3.8846209924       15.3878459498       38.4563006942
  N        -3.7182961748       16.7413206849       38.4417951358
  O        -2.7050189696       18.3151615733       37.2236981850
  S        -4.1240787752       14.6084443757       40.0384511712
  C        -3.8766097656       17.5894252331       39.6735980647
  H        -4.2196427180       18.5824616076       39.3748834346
  H        -4.7437392572       17.2848292764       40.2947379347
  C        -2.5532564426       17.6602223501       40.4057360158
  H        -2.4146795348       16.7088044154       40.7534324260
  H        -1.7833943802       18.0314735437       39.7504347505
  H        -2.6151938259       18.3830104650       41.2514696685
