352
i=
  H         2.2258150871        3.3434178994       12.5162860445
  C         2.7008044974        2.3881681213       12.7711544670
  H         2.2000304893        1.5972028282       12.2216206737
  C         4.2483633955        2.4031051419       12.5210686131
  C         2.3837339300        2.0705875146       14.2088716795
  C         4.5961808105        2.6949514778       11.1039942352
  H         4.8443575174        1.6132359232       12.8781023196
  H         4.6401422944        3.2659700513       12.9642961925
  H         3.3999121709        1.9955738791       14.6885126144
  H         1.8480814614        1.1057699172       14.3663038079
  H         1.8878594412        2.8808490456       14.7249558196
  C         4.8914407866        1.3434510657       10.3709397001
  H         3.7943143777        3.2020836184       10.5619373306
  H         5.5337220566        3.2852055970       11.0535428439
  C         5.2584813601        1.2908790575        8.9154056718
  H         3.9144138955        0.7349024461       10.4626489571
  H         5.6071943285        0.7309755867       10.9069681390
  C         6.4687573138        2.1968584566        8.5279100397
  H         4.3381343594        1.6186254997        8.4151764680
  H         5.3729111704        0.2225311145        8.6184794247
  C         7.8497075503        1.5097452006        8.8833119024
  H         6.3078536120        2.2463316208        7.3866069215
  H         6.4184811464        3.1841252696        8.8490839310
  C         9.0455454486        2.5051646047        9.0941900193
  H         8.0829423469        0.7081970234        8.1305858857
  H         7.7233654611        0.9529091758        9.8497608998
  C         8.5669384970        3.8719510565        9.7234697763
  C         9.5192155474        3.2008724629        7.8608165975
  C        10.2053554222        1.8189492005        9.8843875497
  C         8.8887555887        4.9819397730        8.9493438259
  C         8.1486377849        4.2586814682       10.9967311118
  C         9.4853254186        4.5462060147        7.7969048580
  C        10.0879442885        2.5727937541        6.7277237373
  H         9.8920669357        1.1098384853       10.6067881832
  H        10.7093375785        1.2297789514        9.1402277653
  C        11.3213191435        2.6756495333       10.4088173895
  S         8.1992681370        6.4451540414        9.5496652385
  C         7.8782084713        5.6193682861       11.0606362581
  H         7.9667265477        3.5418171496       11.7585822698
  C         9.8008036306        5.1795506940        6.6689971787
  H        10.0506457790        1.5468889447        6.7335912011
  C        10.4540592147        3.2631428536        5.6230383793
  H        11.0752354572        3.6127800294       10.7670308576
  H        11.7846063806        2.9835288217        9.4372502722
  C        12.3320796210        1.9712082353       11.2727316516
  C         7.4249063612        6.3181507327       12.2710860183
  C        10.2861713498        4.6059462902        5.4683758146
  H         9.6584503069        6.2210642655        6.7422828725
  C        10.8452096657        2.8349439109        4.3770793736
  H        13.2561520784        2.4834364143       11.2904045610
  H        12.7083378296        1.1316992867       10.7832952884
  C        11.8634453309        1.9024818086       12.7302064565
  C         7.6782391351        7.6615401665       12.5173067881
  C         6.9943657887        5.4934217184       13.4625048587
  C        10.7769380575        5.2705083121        4.2633543336
  C        11.0732875537        3.9535183915        3.5762729608
  S        11.1064417769        1.3306463394        3.6170761527
  H        11.4646911623        2.9035796898       12.9100703333
  H        11.0361438902        1.2496421145       12.9880360356
  C        12.9716992291        1.6475154960       13.7950969885
  N         8.1983446405        8.5849832972       11.6199329151
  C         7.5120281156        8.2069741048       13.8155782467
  C         6.8115785460        6.0547949294       14.7231795786
  H         6.6351078439        4.5191093873       13.3366931272
  C        12.0750872478        6.1092244918        4.4802835820
  C         9.6134955093        6.1160658068        3.5703426293
  C        11.4595454891        3.5746440558        2.2826962047
  C        11.4876350842        2.2422839319        2.2073951973
  H        13.7603125943        2.4856694372       13.8104264900
  H        13.5527523708        0.7855040354       13.4668754874
  C        12.5915072046        1.3455194781       15.1963402524
  S         8.2653229145        9.9959343213       12.3775206998
  N         7.7998102910        9.5305630713       13.8322481080
  C         7.1419580412        7.5343400289       14.9780705756
  H         6.3201582089        5.4444418268       15.4793020149
  H        11.9817846204        7.0545909622        4.9983624739
  H        12.3550580699        6.4917827150        3.4664621222
  C        13.3386258215        5.2985504547        4.9291563420
  H         9.2815042606        6.8852845799        4.3253357160
  H         9.9966763052        6.6366477862        2.7479543886
  C         8.4614985452        5.3128716611        3.0754629379
  H        11.5698164547        4.2893151999        1.5037495498
  C        11.7759740334        1.5677454930        0.9028556016
  H        11.4781336130        1.1844948777       15.2437417637
  H        12.8007327867        0.2971883842       15.4712512986
  C        13.0617328650        2.2577928336       16.3228190551
  C         7.0012422946        8.2303059454       16.2228700951
  H        13.0240331870        4.4499061267        5.5277950383
  H        13.6317037275        4.8769578498        3.9545218240
  C        14.4962630788        6.1240085950        5.4934141978
  H         8.1931998833        4.5974609482        3.8682852085
  H         8.6127224762        4.7449961728        2.1610600722
  C         7.2903860159        6.2819821174        2.7990816035
  C        11.9790546460        0.1945575518        0.6776921375
  C        12.0616424974        2.3438950153       -0.3305307025
  H        12.4309844827        3.1523283335       16.3980711888
  H        14.0396861108        2.5048336234       16.0374544109
  C        12.9984716537        1.5028747796       17.6828189465
  H         7.3770406474        9.2178716381       16.0991852783
  C         6.8771231741        7.7550354861       17.5333971264
  H        14.1949637284        6.4934557335        6.5052043218
  H        14.7160211375        7.0091603588        4.8497522813
  C        15.7868246469        5.1973197808        5.5175028311
  H         6.6908042565        6.3743139296        3.6975692755
  H         7.5952877827        7.3126712589        2.6377390858
  C         6.4047131484        5.8177553850        1.6666225158
  N        11.8469417013       -0.8040030187        1.6534984780
  C        12.3117041806       -0.3900506372       -0.5170878547
  C        12.5678693241        1.8019979338       -1.5167462994
  H        12.0041924970        3.4466266523       -0.3055524881
  H        13.1933315254        2.3048789256       18.4110573347
  H        13.7139069973        0.6962912567       17.6660220101
  H        12.0486119355        1.0523621838       17.9550651263
  S         6.3544597982        6.1699423611       18.1068820804
  C         6.9149961729        8.7118498213       18.6345989174
  H        15.6537516853        4.1680391897        5.9570649983
  H        16.2232993396        5.1128012513        4.4784269647
  C        16.9309388822        5.9743679780        6.1529552506
  H         6.0419488033        4.8262512026        1.8681246489
  H         7.1103516297        5.7836834102        0.7559207563
  C         5.1423614326        6.6647869665        1.3714905523
  S        11.7976923030       -2.2964472050        1.0121493820
  N        12.1779646108       -1.7943963466       -0.4783688614
  C        12.6454602159        0.3325544768       -1.6451328838
  H        12.8270805988        2.4515086389       -2.3630132140
  C         6.3705981096        6.8188647115       19.6829603049
  N         6.5104938862        8.1459769439       19.7651624837
  O         7.0796784928        9.9197850733       18.4347510120
  H        17.4693561869        6.5152502577        5.4225145326
  H        16.5434676334        6.7507953116        6.7748643763
  C        17.8551615054        5.0585807097        6.9833343742
  H         4.6219269636        6.0626718235        0.6609175388
  H         4.5175557146        6.8563876836        2.2724037833
  C         5.5233507670        8.0528743742        0.7727174349
  C        12.9188047123       -0.4053968109       -2.8175367444
  S         5.7908316275        5.9760437451       21.1845393250
  C         6.6318937888        8.9127258541       21.0498547048
  H        17.1354343166        4.6122394767        7.7228930687
  H        18.2039393141        4.2855793450        6.2831090777
  C        19.0352674252        5.7991076210        7.7623212361
  H         5.7511933434        7.8377999947       -0.2915648497
  H         6.4628211108        8.4562927813        1.0985402128
  C         4.4204400019        9.0573097452        0.9877312406
  H        12.7131358008       -1.4588886512       -2.7630057278
  C        13.4667075853       -0.1294397987       -4.0727884662
  H         5.8892955740        8.5479370450       21.8182038350
  H         6.2985914567        9.9419622517       20.9265555554
  C         8.0611664458        8.8666878339       21.5595034818
  H        19.3383014262        5.3074017033        8.7630879687
  H        18.6282678834        6.7543280535        7.9219556392
  C        20.2991872473        5.7833972344        6.9078096625
  H         4.7131307211        9.9317478746        0.3751971702
  H         3.4409188449        8.7607009443        0.5742069964
  C         4.2492054911        9.6239536947        2.3698625506
  S        14.0369389321        1.4836546185       -4.5812567356
  C        13.5719202177       -1.2216769944       -5.0958222224
  H         8.2310404895        8.1639829131       22.3404488496
  H         8.3102438601        9.8548731415       22.0314010500
  H         8.8242222584        8.7458998406       20.7953297759
  H        20.0421856661        6.2250053778        5.8993078366
  H        21.0369898324        6.4916934846        7.2952140009
  H        20.7055068467        4.8286274551        6.7821609410
  H         3.6262971189       10.5834998026        2.4169537980
  H         3.6965330997        8.8370760543        2.8231347503
  H         5.2461745227        9.9204823994        2.7706134046
  C        14.3464688029        0.6915903603       -6.1113775923
  N        14.1537873444       -0.6382772103       -6.1705611992
  O        13.3357936591       -2.4267738889       -4.8346773260
  S        15.1410190162        1.5379577471       -7.4957631294
  C        14.3644608772       -1.4677382037       -7.3549038006
  H        14.7626789954       -2.4586987349       -7.1382206854
  H        15.3055204499       -1.0209608251       -7.8486378123
  C        13.1471419185       -1.4186664198       -8.3936046205
  H        12.2591066068       -0.9659074029       -7.9599589144
  H        12.7749604907       -2.4097576301       -8.6802422515
  H        13.3853494044       -0.9250063728       -9.2538114258
  H        -3.2211403989       14.8134686604       16.4749132671
  C        -2.9167574144       13.7931176889       16.6029242483
  H        -3.7876103018       13.2998166613       16.9876731934
  C        -1.6616167084       13.7573703745       17.5011783482
  C        -2.5841289566       13.2445599361       15.2692715030
  C        -2.1401411669       13.9777517411       18.9360021449
  H        -1.0913346285       12.8190914714       17.3841063677
  H        -0.9702608854       14.5446841705       17.1678031980
  H        -1.8196817508       12.4862414007       15.1916315526
  H        -3.5054320583       12.8570061682       14.8682730172
  H        -2.3994413389       13.9440196005       14.4307750796
  C        -1.3743564237       13.1483803465       19.9127610737
  H        -3.1755542891       13.6756013063       18.9077297243
  H        -2.1339732372       15.0051861785       19.1982250473
  C        -1.9448516425       13.2781604892       21.3530042750
  H        -1.4491426167       12.0891793610       19.6613322098
  H        -0.2881096279       13.5702641486       19.9132972411
  C        -0.9095893949       13.0030628159       22.4153538552
  H        -2.7879976208       12.6102991544       21.3993448499
  H        -2.3995418108       14.2319328206       21.4863480580
  C         0.3449794106       13.8285305739       22.6856981556
  H        -1.5460552532       13.1238915650       23.2948551211
  H        -0.7093713958       11.9383782487       22.2824233844
  C         1.5084604542       13.1041783079       23.3898530734
  H         0.7941813304       14.0924606675       21.7326640654
  H         0.1209633606       14.7870167289       23.0916206569
  C         1.8256838818       11.7404725440       22.6874467372
  C         1.0593727482       12.3935713720       24.6229518135
  C         2.7543728433       13.9895111387       23.5895517158
  C         1.6026028767       10.5925769920       23.4790870936
  C         2.3593802251       11.4073850845       21.4033555009
  C         1.1046133882       11.0014122416       24.7207849165
  C         0.5966713123       12.9580622308       25.7921495768
  H         2.9125990641       14.6043331274       22.6733532793
  H         2.7998659833       14.6072975657       24.5400264992
  C         4.0303453670       13.1954499600       23.8500327969
  S         2.1147269654        9.1395271429       22.6975871395
  C         2.5291302263       10.0386406291       21.2642872998
  H         2.5704231282       12.1378980636       20.6447035228
  C         0.6867695616       10.4267195529       25.8757777909
  H         0.6252167955       13.9995977533       25.8879820065
  C         0.1247173325       12.3071715279       26.9014778793
  H         4.1547270967       12.6959619018       22.8798673356
  H         3.8941261491       12.4855709121       24.6028221944
  C         5.2224326722       14.0944198495       24.1547771476
  C         2.8927297219        9.3154913710       20.0109140915
  C         0.1501570101       10.9993822496       27.0275617760
  H         0.5473940464        9.3901522794       25.9312315479
  C        -0.2536073230       12.7464712152       28.1371683124
  H         6.0570739021       13.6246403783       24.5937940656
  H         5.0462766183       14.9607990911       24.7846649035
  C         5.9995892640       14.5410064643       22.9010886517
  C         2.8104853021        7.9037703023       19.7815238448
  C         3.4134164033       10.1391351073       18.9093076510
  C        -0.3597107022       10.3209156043       28.3172384660
  C        -0.5567707946       11.7081365395       28.9589918691
  S        -0.5452892664       14.3403515936       28.8020515129
  H         6.7325149210       15.1468653115       23.3606096396
  H         5.4573249487       15.2370958354       22.2949620657
  C         6.6810317666       13.4730613966       22.1210352685
  N         2.4634850572        6.9406345487       20.7581573776
  C         3.0965425833        7.3427115511       18.5839004934
  C         3.7137842281        9.5665887982       17.6996564926
  H         3.6501455752       11.2271188672       18.9720644279
  C         0.7729460240        9.5013733854       29.0251383977
  C        -1.7672609078        9.5560949117       28.2100957643
  C        -1.0500346859       12.2176049423       30.1721491567
  C        -1.0310516961       13.5778026288       30.2493720392
  H         7.6880995422       13.8244928820       21.9488783166
  H         7.0827974349       12.5862279516       22.6854227446
  C         6.1485693512       13.2181206944       20.7635767254
  S         2.5078857081        5.4877329104       20.0389732598
  N         2.8950321595        5.9736767712       18.4924267860
  C         3.3197079418        8.1398176585       17.4008547019
  H         4.1165475083       10.1489383898       16.9319190942
  H         0.9818295068        8.6923504019       28.2885779123
  H         0.3691533534        9.0315432334       29.9037879862
  C         2.0153910837       10.3414807714       29.3609882799
  H        -1.6722554950        8.9005908649       27.3908772073
  H        -1.9662706125        8.8823233840       29.0973198522
  C        -2.8923451538       10.4449465425       27.8836280296
  H        -1.3364726852       11.4974515035       30.9967289135
  C        -1.2797417331       14.3124991762       31.5450441103
  H         5.4056742409       13.9285918478       20.4646014490
  H         5.7059024181       12.2422754605       20.6984619799
  C         7.3059357039       13.2511837306       19.7569110157
  C         3.4708203446        7.4950378865       16.1366769943
  H         2.3279285058       10.8919850048       28.5315635781
  H         1.8770260744       10.9684931553       30.2185379045
  C         3.1111541392        9.4140959587       29.5526628038
  H        -2.6300448543       11.1151745034       27.0276789239
  H        -3.0449328852       11.2047456784       28.6939798014
  C        -4.2167305319        9.7636528099       27.5731046382
  C        -1.2994303209       15.6883171314       31.7333133135
  C        -1.5809318012       13.4594767098       32.7824481029
  H         7.6809728982       14.2360846768       19.8451369173
  H         8.0327884908       12.6179191920       20.0926879509
  C         6.8145093271       13.0606930442       18.3425469825
  H         3.4972203127        6.3707898523       16.2371878229
  C         3.8636370020        7.8743557011       14.8696503748
  H         3.2892807882        8.6428795092       28.7590319618
  H         2.9658084268        8.8867302681       30.5169666230
  C         4.4269586775       10.1943972975       29.7914313363
  H        -4.1861258415        9.1000829635       26.7662837356
  H        -4.4429408151        9.0698479789       28.3236810397
  C        -5.4634369769       10.6199878204       27.3773403234
  N        -1.0618708803       16.5709556628       30.7224287478
  C        -1.6509392114       16.2906658391       32.9188976045
  C        -1.7693649676       14.0874648078       33.9604846181
  H        -1.4699938978       12.4086544272       32.8595190548
  H         7.6175748039       12.6908039766       17.6975704901
  H         6.1548088598       12.2210515818       18.3734462761
  H         6.3559689844       13.9313293376       17.9788013611
  S         4.1181140834        9.4925381283       14.4113289878
  C         3.8992082078        6.9047207398       13.7664505214
  H         4.5180771883       10.9287161234       28.9220264143
  H         4.2313314696       10.7090388168       30.7795780309
  C         5.6184592158        9.2834125544       29.8990943049
  H        -5.2401131935       11.5824232874       27.8795406195
  H        -6.3496530221       10.2293514620       27.8914348616
  C        -5.8170509345       10.8765602718       25.8495427348
  S        -1.2674842770       18.1073898346       31.2876627101
  N        -1.6200717829       17.7067143117       32.8167441621
  C        -1.9574334605       15.5681863422       34.0655201790
  H        -1.8467851334       13.4155005380       34.8290667873
  C         4.5211468517        8.8482303709       12.7993819091
  N         4.1934760399        7.5719753290       12.6013891465
  O         3.6377337146        5.6908319336       13.7619528329
  H         6.4897591052        9.8486146007       29.6898883314
  H         5.6065489456        8.5938930908       29.0228419842
  C         5.7172344868        8.4382370655       31.1644768275
  H        -5.1546910961       11.7216137016       25.4888592981
  H        -5.4275431217       10.0492297649       25.2646282885
  C        -7.3049263142       11.2005257980       25.6082096214
  C        -2.2089149694       16.3743748416       35.2981341988
  S         4.8743626977        9.8235368623       11.3269960998
  C         4.2692087794        6.9500671549       11.2469896565
  H         6.7922925156        8.2879851224       31.2943546370
  H         5.2701510337        8.9414936776       32.0235885439
  C         5.1287580780        7.0688883530       31.0571176412
  H        -7.3980781785       11.7550165277       24.6983048327
  H        -7.5572840486       11.9024016480       26.4351646484
  C        -8.1950030267       10.0052710378       25.5773697224
  H        -1.8847113333       17.4327586169       35.2407960921
  C        -2.6781724713       16.1009403645       36.5165948395
  H         5.1227971187        7.2599507667       10.6207401242
  H         4.3708039584        5.8723045490       11.2364133963
  C         2.9437089363        7.2227648352       10.5474332300
  H         5.5374992452        6.5347272048       30.1465222744
  H         4.0462046309        7.0209825084       31.0292239099
  C         5.4088528146        6.2548639016       32.2600856259
  H        -7.9749435562        9.5320177032       24.6747657692
  H        -8.1278341193        9.2956716310       26.4224877218
  C        -9.6192730384       10.4383288991       25.4993182883
  S        -3.0834702802       14.5271998740       37.1266482732
  C        -2.9148119894       17.2603011496       37.4589362402
  H         2.2169400623        6.6054089247       11.0730396846
  H         2.7031456301        8.1825268103       10.7247592907
  H         3.0695032836        6.9379884415        9.4920249289
  H         6.1577810576        5.5055514063       31.9472314086
  H         4.5672774767        5.8982992042       32.7357238240
  H         5.9770168851        6.8338937717       32.9770254593
  H        -9.9090421444       10.2940322010       24.4420659055
  H        -9.7143931814       11.4785881089       25.6242210611
  H       -10.1592813992        9.8870594683       26.2353272993
  C        -3.3431132902       15.3779461151       38.7115418809
  N        -3.4203414160       16.7505245343       38.5811074114
  O        -2.6705821900       18.4411560461       37.1692104685
  S        -3.8459550790       14.7077491856       40.3187754511
  C        -3.6399938730       17.5747312417       39.7534305068
  H        -3.8651605011       18.6350368940       39.4880762339
  H        -4.5251961656       17.2271600634       40.3405193927
  C        -2.4026418567       17.6843808799       40.6185603187
  H        -2.4230441565       16.9271247374       41.4521071454
  H        -1.4350968976       17.6385049269       39.9569454347
  H        -2.3725974266       18.6907794129       41.1346120397
