352
i=
  H         5.1861477488        1.5286420089       12.6069541458
  C         4.5001019860        2.3410813039       12.8801971687
  H         5.2388607354        3.1375619047       12.9206242115
  C         3.4267851692        2.5216332875       11.7836319683
  C         3.8327710497        2.1013265119       14.2293501475
  C         4.0828897965        2.7367421186       10.3494147941
  H         2.7989598645        3.3295712941       12.2347621657
  H         2.8667770211        1.6130178258       11.7381297662
  H         2.9896589984        1.3903102055       14.0812459051
  H         3.4938175667        2.9983680680       14.6568729417
  H         4.4028408119        1.4781670008       14.9100207635
  C         4.8368815907        1.4983470987        9.8232477415
  H         3.3825953529        2.9587485736        9.5731929028
  H         4.8501289097        3.5274880615       10.4363688896
  C         5.5486811736        1.7718979885        8.4548593591
  H         4.0428800824        0.8454208622        9.6180943757
  H         5.5557591381        1.0810906457       10.5350858098
  C         6.8464771550        2.5444887143        8.5256979516
  H         4.8134176832        2.3768474678        7.8572193412
  H         5.6523039155        0.8849101638        7.7827256422
  C         7.9889432511        1.8416519181        9.2517355520
  H         7.2639132760        2.8318109646        7.5490891309
  H         6.6304155666        3.5265170346        9.0201145975
  C         9.2247329481        2.7140988829        9.4473309149
  H         8.3030112480        1.0698877907        8.5648296716
  H         7.7169889123        1.4504466014       10.1794818005
  C         8.8785865087        4.0677511953       10.1858087540
  C         9.6535570752        3.4669956099        8.2444152939
  C        10.3922224405        1.9933489746       10.1071724229
  C         8.9740691426        5.1640229221        9.3179611748
  C         8.3613755887        4.4196969816       11.4555673111
  C         9.5365775274        4.8306019148        8.1331484582
  C        10.1111508508        2.9193436988        7.0156747481
  H        10.1728695921        1.7273057287       11.1389264871
  H        10.6329862714        1.0892066674        9.5773460301
  C        11.6597306302        2.7853823967       10.2960910425
  S         8.4902635051        6.6284429786       10.0638584545
  C         8.1158442851        5.7815866450       11.5521162178
  H         8.3037607446        3.6030092139       12.1755406859
  C         9.9183981639        5.5210730487        7.0015769285
  H        10.1267474440        1.8337986801        7.0123438310
  C        10.4502724443        3.5934433556        5.8940709109
  H        11.4438864080        3.8118034701       10.5568586735
  H        12.0999208984        2.7726186136        9.3561634935
  C        12.6567941522        2.2031026649       11.2746210483
  C         7.5171091275        6.4308140342       12.7814271916
  C        10.2828587222        4.9376674215        5.8029815531
  H         9.7887227405        6.5458302607        7.1516744843
  C        10.7891621392        3.2191664974        4.6448861014
  H        13.5224411992        2.8482839774       11.1938217047
  H        13.0038557772        1.2417136953       10.8742879343
  C        12.1005462729        2.0585133079       12.7204040386
  C         7.5085164602        7.8404453909       13.0495256872
  C         7.0551508446        5.5622770642       13.8894903899
  C        10.6448952238        5.6641965717        4.5225337645
  C        10.9143752281        4.3131425171        3.8232664918
  S        11.0443727245        1.6927674535        3.9299822068
  H        11.5442209495        2.9691516134       12.9021553513
  H        11.3470353241        1.2496218108       12.6587370605
  C        13.3028053119        1.7730283124       13.6703063107
  N         7.8080737424        8.8261312570       12.1288372744
  C         7.2672505452        8.3422493142       14.2800619174
  C         6.6990554229        6.0996734508       15.1063816006
  H         6.7797340171        4.5486464174       13.7817796775
  C        11.9632920953        6.4650260917        4.6615781975
  C         9.4761809010        6.4210276401        3.8993412271
  C        11.2050408198        3.8276035344        2.4827888623
  C        11.1790327034        2.4641331780        2.4008501259
  H        13.8524683428        2.7149306162       13.8602859932
  H        14.0025836408        1.1579952214       13.1361545431
  C        12.9140423786        1.1623608346       15.0652438061
  S         7.9593392433       10.2236500673       13.0033261839
  N         7.5392038342        9.7113092512       14.4110446439
  C         6.8924670826        7.5334551669       15.3754391520
  H         6.3800040553        5.4069238040       15.8421818601
  H        11.9252763276        7.1358935757        5.5333357129
  H        12.1333468969        7.1363649859        3.7804553074
  C        13.2879010804        5.6084517684        4.9459884078
  H         9.3896029726        7.3220014868        4.5341405426
  H         9.7652367024        6.9158731246        2.9876315783
  C         8.2062698184        5.5952156983        3.8294031941
  H        11.3517860538        4.5613959692        1.7000665343
  C        11.6609464695        1.7248361056        1.1641279492
  H        12.2796921985        0.2625101773       14.9514265496
  H        13.8719052168        0.8301741846       15.4574784472
  C        12.0732667151        2.1174863911       15.9132553125
  C         6.7903770583        8.1219336760       16.6659581273
  H        13.0663395166        5.0977135921        5.8144083302
  H        13.4550981563        4.9014006742        4.0962685095
  C        14.5931792365        6.3934123631        5.0515468924
  H         7.9294310391        5.2571980932        4.8160902701
  H         8.2694058625        4.7603034902        3.0990560305
  C         7.1126871704        6.4281812722        3.0798474087
  C        11.7012814451        0.2932125357        1.0115428857
  C        11.7968625830        2.5507034905       -0.1307150678
  H        11.0175835915        2.1128289369       15.5186502498
  H        12.4794013932        3.0943469582       15.6384228988
  C        12.2508455860        1.9043967602       17.4160725562
  H         6.6335575392        9.2503376509       16.7229097434
  C         6.5516886433        7.6351453895       17.9152335977
  H        14.4511642830        7.1927613098        5.7852330697
  H        14.8434808293        6.7848910750        4.0929403056
  C        15.7027883396        5.4984126322        5.5861341464
  H         6.8017228109        7.3141714060        3.6926951288
  H         7.6018349556        6.8486130443        2.2231924587
  C         5.8407542958        5.6431629884        2.7539775056
  N        11.4656939658       -0.6491395021        2.0853171395
  C        12.0034627665       -0.2565951119       -0.2392984871
  C        12.1519229404        1.9160776515       -1.3342413317
  H        11.8567366306        3.5822770695       -0.0963468984
  H        11.3935359331        1.3069845268       17.8555049128
  H        12.1558531533        2.8451366895       17.8754922457
  H        13.1280638157        1.3741735778       17.8040370856
  S         6.3159635148        5.9452196364       18.4262809789
  C         6.2354846482        8.6856566161       18.9444554146
  H        15.8909751656        4.8101734285        4.7511648538
  H        16.6094878484        6.1346855084        5.5317778003
  C        15.6805269484        5.1053629289        7.0690754666
  H         5.4911009084        5.1742795517        3.6741929337
  H         6.0942636686        4.7738296839        2.1002225442
  C         4.6905465525        6.5691453350        2.2494659146
  S        11.5633713881       -2.1402501146        1.4249805346
  N        11.9465795478       -1.6772003377       -0.1071070417
  C        12.2144426975        0.4404947228       -1.4779969355
  H        12.2436461487        2.4804665580       -2.2613921133
  C         6.0892841213        6.6354167831       20.0054791671
  N         5.9351930114        8.0124524732       20.1118278844
  O         6.4796748376        9.8981641991       18.8088276538
  H        15.4708141324        5.9536924357        7.7990194659
  H        14.8244293976        4.4391179704        7.2022640377
  C        16.8989296950        4.3532744566        7.5769704049
  H         4.3415570353        6.3247782064        1.2157122739
  H         3.8942649529        6.3782062423        2.8991504560
  C         4.8916221358        8.1362068737        2.1931162482
  C        12.5391395270       -0.3154590396       -2.6391712509
  S         5.4071433077        5.6592180329       21.3481302563
  C         5.9464019996        8.8404436895       21.3580788258
  H        16.7081307453        3.8207385687        8.4589935605
  H        17.1881470637        3.5344292956        6.8573297245
  C        18.1860947819        5.2670558580        7.8244682348
  H         5.7666597830        8.2507394007        1.5405037720
  H         5.2559098115        8.5536805126        3.1438190114
  C         3.6288589475        8.8459692646        1.6952897132
  H        12.1636549952       -1.3005960530       -2.5736543586
  C        13.1563314743       -0.0448813336       -3.8272814043
  H         5.2105462965        8.3634533533       22.0772751755
  H         5.4694283004        9.8505234052       21.2225457666
  C         7.3354265020        8.9960705136       21.8832524978
  H        18.6817469481        4.8932662401        8.7480448201
  H        17.9181952992        6.3744802728        8.0149404154
  C        19.0679410987        5.4378921697        6.6172509231
  H         3.6164951385        8.7694543299        0.6402299302
  H         2.7053830270        8.5245999403        2.1424436481
  C         3.7873592005       10.4086409570        1.9613782075
  S        13.9325406019        1.3658771730       -4.2279013421
  C        13.1044424323       -1.0884321921       -4.8948964726
  H         7.4855440673        8.1522411222       22.5466083483
  H         7.4394094041       10.0271224173       22.3874784613
  H         8.1195647441        8.9389449983       21.1361799846
  H        18.7380227111        4.8092771674        5.7940798477
  H        19.1449592307        6.4338700360        6.2647978680
  H        20.1073336030        5.0738949065        6.8547330954
  H         4.6121003614       10.5305074112        2.6087452838
  H         3.9894453563       10.8773826420        0.9601754550
  H         2.8968168761       10.8813814268        2.4165248761
  C        13.9634486197        0.7467998074       -5.8783406115
  N        13.7131160615       -0.5848354569       -5.9923294921
  O        12.6428400367       -2.2186364523       -4.7452847473
  S        14.8154321711        1.5815510193       -7.2644043648
  C        13.9156904280       -1.4066856811       -7.2235490488
  H        13.9544982995       -2.4248196441       -6.8251888475
  H        14.8558561625       -1.2015253530       -7.7832378372
  C        12.7908376347       -1.1681895298       -8.2199588089
  H        12.9907044835       -0.3232924745       -8.8656451640
  H        11.7882278351       -1.0749900598       -7.6683851870
  H        12.6202464621       -2.0556035913       -8.8257126570
  H        -3.3740682483       15.2154355390       16.3301282558
  C        -2.9546289754       14.1801638509       16.5334270035
  H        -3.5746037376       13.5986585767       17.1959265997
  C        -1.6330668157       14.4971481168       17.2575881974
  C        -2.6644794362       13.3983460740       15.1946485939
  C        -1.7880113643       14.7957612713       18.7428296189
  H        -0.8631742203       13.7443188120       17.1240367195
  H        -1.2163212706       15.3821999668       16.7946593249
  H        -2.2040937946       12.3837927302       15.4018098784
  H        -3.5735801021       13.0430227185       14.6750970178
  H        -2.1777190032       14.1122915497       14.5337046593
  C        -2.0319276556       13.6540300156       19.7315797691
  H        -2.6276573810       15.5156900831       18.8321560209
  H        -1.0185037363       15.5075881199       19.1466660078
  C        -2.0603369520       14.0139888310       21.2637039087
  H        -3.1059734317       13.2900000141       19.5749739344
  H        -1.3815058908       12.8008878654       19.4994091402
  C        -1.2123324395       13.1489621052       22.2339794117
  H        -3.1081702374       14.0297750780       21.6463051739
  H        -1.7580381470       15.0890154583       21.3466304293
  C        -0.0001675770       13.9389031371       22.7460355755
  H        -1.8716223428       12.9396497007       23.1079503265
  H        -0.8998833243       12.1796659354       21.8427180119
  C         1.0656227998       13.0649284654       23.4916652604
  H         0.3798419320       14.3653913799       21.7879434351
  H        -0.2243490746       14.8201905027       23.4569172433
  C         1.2974106702       11.7305063919       22.7669600683
  C         0.6544735876       12.3304706782       24.7133015533
  C         2.3889031779       13.8079867131       23.8456122428
  C         1.0285191383       10.6049260681       23.5622220244
  C         1.8827070354       11.2615625480       21.5837253585
  C         0.5948116653       10.9797213397       24.8232655901
  C         0.2551341549       12.9614093432       25.9366060221
  H         2.6184193801       14.3789555945       23.0073302368
  H         2.1537240652       14.4710046707       24.6465548098
  C         3.5405278082       12.9844470268       24.3308793054
  S         1.4386444523        9.0986300465       22.8738023504
  C         1.9839832277        9.9095821939       21.4908216652
  H         2.1393809666       12.0686547459       20.9470808304
  C         0.2299379483       10.3728413686       25.9937485143
  H         0.4296100612       14.0587194810       25.8622965017
  C        -0.1890274652       12.3770154910       27.0373226277
  H         3.7153182833       12.0994182618       23.6850432996
  H         3.2636429255       12.4661249120       25.2106010058
  C         4.8802372835       13.7182339798       24.4498340992
  C         2.5592969478        9.1998478286       20.3084014348
  C        -0.2294597457       11.0562935084       27.1689135686
  H         0.2968894633        9.3289148953       25.9696904307
  C        -0.5976198536       12.8401227213       28.2363401842
  H         5.5386858607       13.3144106598       25.2320831687
  H         4.5923785792       14.6483401492       24.9720693969
  C         5.6102856649       13.9444272921       23.1077377168
  C         2.5064495998        7.8320331225       20.0197167547
  C         2.9705852370       10.0595037095       19.1622804751
  C        -0.6800145607       10.4027510515       28.3844575630
  C        -0.9024612895       11.7530324962       29.0795264012
  S        -0.9343432304       14.3708585986       28.8747636157
  H         6.2493025195       14.8093252302       23.1214062518
  H         4.9008042667       14.3128833167       22.4312244058
  C         6.3457363492       12.6947449107       22.5945046682
  N         2.0718002438        6.8869727134       20.9374791389
  C         2.8576314137        7.3413890076       18.7806167466
  C         3.2066063879        9.5684752481       17.9032062866
  H         2.8926848913       11.1061114961       19.3506999226
  C         0.5014747081        9.5154535842       28.9493279121
  C        -1.9539236543        9.6920436409       28.2060735733
  C        -1.3300251069       12.2319559156       30.3154185166
  C        -1.2770277807       13.6015275667       30.3777819218
  H         7.3737052671       12.5842740947       23.0215094503
  H         5.7137003731       11.8365142860       22.9951165948
  C         6.2824777316       12.6295555481       21.1476245572
  S         2.3611917590        5.4488305597       20.2100120892
  N         2.7583530312        5.9785402854       18.7135099900
  C         3.1815874389        8.1249783600       17.6550163919
  H         3.5737067334       10.2851146935       17.1227822464
  H         0.8946499160        8.9003863558       28.0979425588
  H         0.1998396952        8.7891593674       29.6886316774
  C         1.7949712341       10.2479924119       29.4793212187
  H        -1.7624900146        8.7423714504       27.6871654849
  H        -2.2911684256        9.5379084429       29.2079753153
  C        -3.0518092481       10.4681407408       27.4924515010
  H        -1.5148841924       11.4907870659       31.1190665116
  C        -1.5237923299       14.4016503819       31.6217029107
  H         5.2743407366       12.7570542894       20.7729629846
  H         6.6365509136       11.7177744976       20.7806245339
  C         7.1839706705       13.7545486558       20.5406448108
  C         3.3423823523        7.4968000283       16.3554733900
  H         2.2866014328       10.8883045327       28.7090637913
  H         1.5038489010       10.8927539628       30.2870994479
  C         2.7317486628        9.2354344314       30.1668827023
  H        -2.6804344039       10.8445074111       26.5628231469
  H        -3.3063200206       11.3540643469       27.9363159665
  C        -4.3026234716        9.6579442813       27.3962183276
  C        -1.6868714329       15.7845739762       31.6403722587
  C        -1.8383080398       13.5902987066       32.8414623832
  H         6.7353673083       14.7390654459       20.8461959117
  H         8.1986683917       13.7428097969       20.9651989408
  C         7.3060137956       13.4983298623       19.0178384755
  H         3.1641683039        6.4668581703       16.3584866289
  C         3.6027063688        7.9464502229       15.0591472150
  H         2.8394000729        8.4238081079       29.4330045540
  H         2.2213458827        8.7005676234       31.0361159396
  C         4.1491533149        9.7862535605       30.3925894338
  H        -4.0800628514        8.8336234186       26.6953369530
  H        -4.6203159858        9.1796218365       28.3553859039
  C        -5.5014607983       10.4894020759       26.8034169286
  N        -1.3999520303       16.7154950802       30.6536657546
  C        -1.9737260560       16.3584979564       32.8565208560
  C        -2.0844147789       14.2553387217       34.0890644091
  H        -1.9158206070       12.5274995123       32.7957842047
  H         8.2437438947       13.9931324623       18.6656075920
  H         7.4842711315       12.4204591576       18.7955110529
  H         6.4799029423       13.9692100931       18.4526596242
  S         3.8519056996        9.5449706167       14.6581501945
  C         3.6951782032        6.8867025690       13.9852823876
  H         4.3956509715       10.6601177259       29.8413013993
  H         4.0328634347       10.0724922726       31.4484504651
  C         5.2636910398        8.7962925529       30.2177092556
  H        -5.1304124112       11.2159432336       26.1583444973
  H        -5.7861484229       11.0090933976       27.7294658084
  C        -6.5924957874        9.6702241031       26.1409804254
  S        -1.6642023218       18.1239026035       31.2357888489
  N        -2.2053195261       17.7357143598       32.7318807787
  C        -2.3024658228       15.6699135670       34.0907329670
  H        -2.1564845889       13.6513390524       34.9779612419
  C         4.2189365972        8.8942029493       12.9805133898
  N         4.0696163674        7.5549415655       12.8623125744
  O         3.6301197729        5.6648539804       14.1954206088
  H         6.2530518928        9.1962523163       30.2071587068
  H         5.1222878640        8.2846634099       29.2874728358
  C         5.1693405097        7.6476792382       31.1722281614
  H        -6.2119468694        9.0023766305       25.3319242438
  H        -7.0588212353        9.0546086904       26.8905027372
  C        -7.5473812847       10.5738881381       25.4220742153
  C        -2.7712729885       16.4381522248       35.2418434282
  S         4.7032986429        9.8275727270       11.5624470543
  C         4.0521822859        6.7762587332       11.6728931617
  H         5.6178181599        7.9324728419       32.1455485004
  H         4.0997360725        7.4224077726       31.4059173872
  C         5.9468202963        6.4606683183       30.6195635989
  H        -6.9931091454       10.9399942623       24.6045600760
  H        -7.8587491682       11.3019420592       26.1501169258
  C        -8.7293811133        9.9085584449       24.8073219053
  H        -2.6245550438       17.5147612057       35.1238069439
  C        -3.0327497829       16.0063296113       36.5309694624
  H         4.5558797364        7.1421461226       10.8477452667
  H         4.3665149568        5.7454784456       11.8845394123
  C         2.6426201387        6.6136424517       11.2479874637
  H         6.6752521523        6.8064502658       29.8873405682
  H         5.2874177677        5.7333196951       30.1699918959
  C         6.5439548275        5.6612315459       31.7696099745
  H        -9.1335909952       10.5087680605       24.0466804538
  H        -8.4184689369        9.1015820091       24.1682275439
  C        -9.7064024811        9.6117085618       25.8480623071
  S        -3.3000170605       14.4381600966       37.0752458026
  C        -3.1045417264       17.1204368377       37.5454618027
  H         2.6662692491        6.4827858890       10.2059408104
  H         2.1406457883        5.7657696939       11.7563385806
  H         2.0313872964        7.5428034651       11.5308061690
  H         6.9323508134        4.6740069165       31.4267037635
  H         5.7969138148        5.4612816719       32.5325015619
  H         7.3154827589        6.3387476241       32.1755785696
  H        -9.4059295330        8.6694430703       26.3721126528
  H       -10.7087130747        9.4720765280       25.4617720644
  H        -9.8397775747       10.4711210605       26.5106977308
  C        -3.6911881146       15.2537427825       38.6362025582
  N        -3.4885486631       16.5667174231       38.7171863177
  O        -2.7719437112       18.2814751320       37.3483728593
  S        -4.2943229886       14.3893075537       40.1078229084
  C        -3.4647653191       17.3131784609       39.9984541751
  H        -3.6563774899       18.3461017365       39.7955122812
  H        -4.2237247895       16.9881070896       40.7358408922
  C        -1.9511556821       17.2584670759       40.5102085461
  H        -1.7283970731       16.2533432902       40.8283775976
  H        -1.2173148903       17.5232967399       39.7625664219
  H        -1.8494381329       18.0231254069       41.3039524794
