352
i=
  H         4.1932053021        1.1832571277       12.5281295070
  C         3.8557087936        2.2264366729       12.7281058742
  H         4.7950813251        2.7843994034       12.5649193937
  C         2.9019078703        2.7072470822       11.6267987905
  C         3.3616934077        2.3931563938       14.1920445061
  C         3.8575086529        3.1441260280       10.4252402640
  H         2.2605857287        3.5326995458       11.8895805644
  H         2.3213870530        1.8296409223       11.3504661183
  H         2.5812862151        1.5884181620       14.4359558715
  H         2.7931680217        3.2791776260       14.4482996480
  H         4.2193119186        2.2343421663       14.8389703149
  C         4.6754176925        1.9249383762        9.9148377921
  H         3.3350311175        3.6314139133        9.5790276804
  H         4.4102684479        3.9511583526       10.8417350011
  C         5.2651694574        2.1387023889        8.5179163125
  H         3.9997095959        1.0937328937       10.0000384876
  H         5.4435768183        1.4916191414       10.5522217419
  C         6.6575651825        2.8826829452        8.5868967433
  H         4.5475974018        2.5507244311        7.8185453898
  H         5.4137888570        1.1576566789        8.1609242367
  C         7.7876014147        2.0284799003        9.1012638159
  H         6.9045212300        3.2672042361        7.6412768235
  H         6.4087351631        3.6758057183        9.3170432360
  C         9.1102261689        2.8064792470        9.2409273723
  H         7.8938225004        1.3092140645        8.3396333566
  H         7.5527757076        1.5845545801       10.0769761058
  C         8.6799790157        4.1188394840        9.9449606949
  C         9.5632375850        3.4826235685        8.0253861302
  C        10.1538264171        1.9663991707       10.0182400011
  C         9.0095382525        5.2165947888        9.1916699424
  C         8.1137298897        4.4502241002       11.1450029084
  C         9.5105760186        4.8574374854        7.9609295813
  C        10.0792719248        2.8784351343        6.8698642404
  H         9.7006315690        1.4973327267       10.8999867966
  H        10.4574527606        1.1856185122        9.2757034655
  C        11.4174182966        2.8471762361       10.2611012141
  S         8.6098027167        6.6794375644        9.9797418346
  C         8.0217967042        5.7788930126       11.3876640032
  H         7.7960362039        3.6484805141       11.8101883054
  C        10.0068768259        5.5518352815        6.8819721293
  H        10.2630624598        1.8757333827        6.9914718028
  C        10.4471121557        3.5665251208        5.7080556792
  H        11.1332568899        3.8599701613       10.6077209371
  H        12.1249515907        2.9549214428        9.4298373995
  C        12.2790217608        2.1090352551       11.3251271569
  C         7.5944502461        6.5000965332       12.6857861512
  C        10.4255851472        4.9247864381        5.6902549339
  H        10.1025415024        6.6281032457        6.9379332821
  C        10.8606494899        3.2134634841        4.4713233293
  H        13.2356586941        2.6888781100       11.4415460570
  H        12.5608210799        1.1166795958       10.9750254224
  C        11.7364649944        1.9125927229       12.7714305400
  C         7.6748155560        7.9034271344       12.9403453843
  C         7.4747988644        5.7055573260       13.9443716560
  C        10.8800822066        5.5595015627        4.3563669941
  C        11.1300944682        4.2630567761        3.6452643342
  S        11.1018554333        1.6746571799        3.7310944657
  H        10.9486051314        2.6590718289       13.0152192505
  H        11.2791151251        0.8902675615       12.8842586523
  C        12.9065617229        2.1188832441       13.7186721979
  N         8.0515312634        8.8215043070       11.9742499114
  C         7.4416779380        8.4963814322       14.1532683142
  C         7.2314215497        6.2929881967       15.1699742487
  H         7.4876062358        4.6136760940       13.8946399257
  C        12.1069905860        6.5168726964        4.4067182950
  C         9.6132904934        6.2039731513        3.7781182718
  C        11.4581291282        3.8046627855        2.3096865453
  C        11.5183680288        2.4640744210        2.2424888260
  H        13.1880432423        3.1445398957       13.7660695999
  H        13.7269660656        1.5424172103       13.2979690035
  C        12.6616963728        1.5649359673       15.1348979427
  S         8.0784199194       10.2790796496       12.6445842161
  N         7.5687361581        9.8676897434       14.0885323812
  C         7.1751406720        7.7683379006       15.3674453558
  H         7.0343415421        5.6171455569       15.9855927602
  H        11.9208920747        7.0841279680        5.3158284428
  H        12.1288132632        7.1792002503        3.5678620800
  C        13.4411380535        5.7443273086        4.4613689302
  H         9.3837839458        7.0068596219        4.5077672323
  H         9.8170216761        6.8023477198        2.8977325401
  C         8.4891227997        5.2921344051        3.4448612947
  H        11.6233465091        4.5253225951        1.5372531914
  C        11.6940307144        1.6807415490        0.9586937768
  H        11.6080038631        1.5732513277       15.4517438821
  H        13.2864626669        0.6581442298       15.1790873233
  C        13.3756751584        2.5504435701       16.0621883544
  C         6.7567360458        8.4410439911       16.5531284012
  H        13.4557445629        5.0879905934        5.3715105626
  H        13.5591322351        5.1062434740        3.6322287320
  C        14.6637706971        6.5608900878        4.8037163996
  H         8.0285044648        5.0458408038        4.3747337846
  H         8.8755563670        4.3201031912        2.9843822139
  C         7.4527929076        6.0722295775        2.6462106115
  C        11.8828514530        0.2470406465        0.8294307995
  C        11.7003712034        2.3831234884       -0.3529796321
  H        12.7472377509        3.4127058514       16.2105451188
  H        14.2885005270        2.9327442603       15.6628740375
  C        13.4337722674        1.8645419372       17.4271211133
  H         6.6826294586        9.5439170795       16.4469799100
  C         6.5544581608        7.9306411569       17.8263708605
  H        14.4561588428        7.1283046481        5.6517408951
  H        14.8205137177        7.1962703458        3.8921619099
  C        15.8966551516        5.7389954664        5.0312029875
  H         7.2536103375        6.9584031268        3.2176363903
  H         7.8317273825        6.3617560375        1.6370399627
  C         6.2221234912        5.2241471391        2.3662559504
  N        11.8298537131       -0.5995172583        1.8888493487
  C        12.1598851279       -0.3601399253       -0.3557172416
  C        12.0672638796        1.7730935943       -1.5605532328
  H        11.4607307703        3.4006635267       -0.3952421407
  H        12.4376798215        1.6281294273       17.8458162810
  H        13.8439026806        2.5589857413       18.1524539343
  H        14.0096436281        0.9403479216       17.2873351068
  S         6.4665312207        6.3139466726       18.3644473819
  C         6.3886673936        9.0030339977       18.8364644663
  H        15.7595721693        4.6937232006        4.7503065926
  H        16.7535093640        6.0570797134        4.3688748377
  C        16.2494860547        5.7810549680        6.5101229482
  H         5.5948465623        4.8516761927        3.1823770036
  H         6.4996629765        4.4080256389        1.6840779045
  C         5.2552643670        6.0333528936        1.5824859655
  S        11.8088943858       -2.0965196897        1.3256613120
  N        12.2003770953       -1.7639753126       -0.2301852086
  C        12.3352883445        0.2879404321       -1.5705081398
  H        12.2740727365        2.3761900985       -2.3946089198
  C         6.1780675260        7.0329324813       19.9835454522
  N         6.0287590919        8.4137332568       20.0614519683
  O         6.5268717704       10.1872274410       18.6523063476
  H        16.1449445399        6.8558422285        6.8069471152
  H        15.5020896994        5.2835534614        7.1521960713
  C        17.5145152353        5.1720897828        6.9895599817
  H         5.6416714636        6.5261648935        0.6947959869
  H         4.5287675280        5.2619499113        1.2264219724
  C         4.5979903973        7.1760228996        2.3956345422
  C        12.5735014531       -0.5193684672       -2.7191128742
  S         5.7958206168        6.0518852813       21.4062870473
  C         6.1791659239        9.1053867188       21.3190461983
  H        17.3125510993        4.5562755716        7.7817345574
  H        17.6709902540        4.4675327610        6.1789587823
  C        18.7407670409        5.9930958952        7.2403824836
  H         5.1336721364        7.4268752305        3.2701624005
  H         3.7018601586        6.7662907586        2.8506401685
  C         4.3880959638        8.4428956856        1.4526224468
  H        12.1950004891       -1.4710524620       -2.5291102916
  C        12.9446914577       -0.2785882727       -4.0113621277
  H         5.5003323499        8.5747093129       22.0392541439
  H         5.8283233891       10.1548256298       21.1201842136
  C         7.7233747073        9.1728357399       21.6976963721
  H        19.2943499109        5.7533629018        8.1669878359
  H        18.4630894173        7.0392047584        7.4294956815
  C        19.7282094678        6.1301415376        6.0104136804
  H         5.2570102601        9.0935697976        1.6017482313
  H         4.3209436377        8.1850188665        0.3398452243
  C         3.1357099015        9.2698054992        1.7911687507
  S        13.4503137439        1.1640788380       -4.7231695988
  C        13.1250786652       -1.4628021772       -4.7872363635
  H         8.3714476324        9.1565181742       20.7973966654
  H         8.0172430418        8.2943704343       22.3390587758
  H         7.9747219419       10.0536916641       22.2380123853
  H        20.3401770856        7.0037135795        6.2181056797
  H        20.2352773434        5.2475203743        5.9135565621
  H        19.0164460876        6.2857366808        5.1824205188
  H         2.6333765792        9.8134430106        0.9210540801
  H         2.4712522821        8.5110928518        2.2992133822
  H         3.3842002513        9.9708350491        2.5789967332
  C        13.8078172310        0.1981915491       -6.1644474114
  N        13.6320486424       -1.1149368523       -5.9657252329
  O        12.8588445655       -2.5843664031       -4.3894254994
  S        14.3120467375        0.7589780953       -7.7903526055
  C        13.7571766309       -2.1321570206       -6.9949969740
  H        13.8717102747       -3.1699230968       -6.6079781537
  H        14.6585540977       -1.9671116884       -7.5655801789
  C        12.5070063725       -2.2711468367       -7.8887615117
  H        12.1152612130       -1.4188539887       -8.5185229949
  H        11.6536501355       -2.5779509272       -7.2548854435
  H        12.7480009958       -3.0894621813       -8.5389859571
  H        -3.5454095863       14.7537405939       16.4283010972
  C        -3.2332525336       13.6965503836       16.3615761271
  H        -4.1142086447       13.0636079816       16.5424966463
  C        -2.1065258682       13.4156776799       17.3351235181
  C        -2.7832772108       13.4411317174       14.9468714819
  C        -2.3845388108       13.8589992492       18.7491792205
  H        -2.0311453515       12.3728542582       17.5596786043
  H        -1.0955848453       13.7937668868       17.0340064561
  H        -2.2858073869       12.4825735520       14.8198503819
  H        -3.5210388332       13.6360177384       14.2220805446
  H        -2.1386357226       14.2375873372       14.8047646655
  C        -1.4719397092       13.1999866666       19.7627649537
  H        -3.3204548722       13.5847073424       19.0889500709
  H        -2.3140002626       14.9609622049       18.8085061183
  C        -2.0345227964       13.3067232331       21.1936423613
  H        -1.3282993256       12.1790921726       19.4662036648
  H        -0.5755085962       13.7166390264       19.6929215798
  C        -1.0914606884       12.7516099954       22.1589308623
  H        -2.9536638577       12.7854142227       21.4106786347
  H        -2.2098603968       14.3593078957       21.3516222525
  C         0.0512151902       13.7179040572       22.4900296196
  H        -1.6811367679       12.4043912497       23.0344631044
  H        -0.7672068912       11.8960201402       21.6075608978
  C         1.1559706030       13.0555217887       23.3593898347
  H         0.5373146194       14.1198593087       21.6574232028
  H        -0.3060325254       14.6588193250       23.0161224933
  C         1.4572494536       11.6787943988       22.7308614517
  C         0.7218452505       12.3939910482       24.6161275444
  C         2.4482223085       14.0241613497       23.4397137001
  C         1.2476526032       10.5892734362       23.5415059109
  C         1.9418519167       11.2605369878       21.5017599091
  C         0.7348817710       11.0252044273       24.7390294454
  C         0.3526206391       13.0249530597       25.7905225287
  H         2.7188907309       14.4885473200       22.4994431287
  H         2.3187748760       14.8569948744       24.1217386514
  C         3.7524625007       13.2838379541       23.8228688379
  S         1.7451243242        9.0844980230       22.8907551181
  C         2.2292475580        9.9211688560       21.4045296270
  H         2.2347307244       12.1275247687       20.8525068113
  C         0.2957522868       10.3594042987       25.9004207858
  H         0.4027190758       14.0927348326       25.6918204466
  C        -0.1460038567       12.4330936808       26.8878564069
  H         3.8995182733       12.4538564213       23.0894466830
  H         3.4960291364       12.7294158449       24.7669194249
  C         5.0210997032       14.0815663081       24.1230778909
  C         2.7308364551        9.2456380741       20.1326058863
  C        -0.1441415637       11.0909386003       27.0048786392
  H         0.4004823420        9.2625903439       26.0449319890
  C        -0.6855626519       12.8833731074       28.1008204166
  H         5.7082555628       13.5470396863       24.7740237660
  H         4.7294015691       15.0452700001       24.6454288702
  C         5.7684775189       14.4390735685       22.8111811721
  C         2.6709469238        7.8298493033       19.8155079852
  C         3.2453243950       10.1311960779       19.0326979793
  C        -0.7716983136       10.4438336661       28.1991852730
  C        -0.9683209442       11.8354849370       28.9055222381
  S        -0.8626241853       14.3703402775       28.9014312222
  H         6.5327355357       15.1777425136       22.9680356954
  H         5.0520974002       14.7944155618       22.0362520296
  C         6.6148211092       13.3033979397       22.2031176095
  N         2.3590535444        6.8775367932       20.7884474190
  C         2.9366370560        7.3390100291       18.5501329480
  C         3.5300525963        9.6348023468       17.7466485208
  H         3.3862920826       11.1443165481       19.1540220079
  C         0.1809049695        9.6781949951       29.0648617420
  C        -2.0904772809        9.6337322841       27.9442226195
  C        -1.5795072058       12.2744963610       30.1493816127
  C        -1.5803891931       13.6539194064       30.3021147597
  H         7.6246138272       13.6285201913       22.2618228574
  H         6.5305918381       12.3694059106       22.7532726693
  C         6.3156955534       12.8370282265       20.7288413520
  S         2.3364171029        5.4356938182       20.0504118828
  N         2.7190354703        5.9680943692       18.5495685060
  C         3.3194329251        8.1735700886       17.4805049111
  H         3.9117229200       10.2790097010       16.9618759860
  H         0.5465369054        8.8236884324       28.4662690123
  H        -0.3501968944        9.2029833303       29.9199945176
  C         1.3540911132       10.4894574438       29.6365093214
  H        -1.7999588026        8.8566004615       27.2299344905
  H        -2.3714401511        9.1460250308       28.8952662676
  C        -3.1342137041       10.5731944537       27.3126400702
  H        -1.9813655054       11.5247072846       30.8662681507
  C        -1.7919359202       14.4117285726       31.5586889871
  H         5.3052152704       12.4140758366       20.6452278864
  H         6.9592843801       12.0191007479       20.5567917429
  C         6.3655696608       13.9526892226       19.6490418796
  C         3.5041630703        7.5921165872       16.1917896807
  H         1.7654991833       11.1689211797       28.9465458986
  H         0.9466146055       11.0620493255       30.4007699500
  C         2.3894359649        9.5407736149       30.3206517763
  H        -2.9395478662       10.9069429632       26.2497831404
  H        -3.3386572701       11.4483004114       27.9153878731
  C        -4.5037582815        9.7151584498       27.1737649634
  C        -1.7976426154       15.7639441175       31.7211106948
  C        -2.0179553506       13.6180835328       32.8834894206
  H         5.3243226521       13.9478247194       19.2182562085
  H         6.6218798874       14.9188723073       20.1011228170
  C         7.3873258685       13.7265824755       18.5144796946
  H         3.3168574202        6.5559514416       16.0697478137
  C         3.7299602706        8.0773344243       14.8961694959
  H         3.0500201638        9.0659777029       29.5160232043
  H         1.9069265235        8.6778298255       30.8100979538
  C         3.3804876586       10.3687602684       31.2694965230
  H        -4.2442766460        8.8932030708       26.5038637210
  H        -4.8166753422        9.3024618866       28.1663929064
  C        -5.6194713974       10.5751833699       26.6377489081
  N        -1.6038986983       16.6514282398       30.6986277787
  C        -1.9937856101       16.4185956845       32.9347623386
  C        -2.3100448472       14.2580087794       34.1009663484
  H        -2.2292586231       12.5204915915       32.7648899974
  H         7.7171398397       14.6593073720       18.0010452736
  H         8.3827442706       13.3191827907       18.7447986705
  H         6.9132376210       13.1306646763       17.7179353862
  S         3.8680708187        9.6865891594       14.4482188874
  C         3.9622594053        7.0559649555       13.8209850651
  H         3.5945572424       11.3951024557       30.9613966042
  H         2.9417915226       10.5330663607       32.2837799298
  C         4.8032296909        9.8514230325       31.1895320186
  H        -5.2931969782       11.0442416161       25.7688262651
  H        -5.8902470295       11.4185039868       27.2841003395
  C        -6.8199159841        9.7427917451       26.0831062803
  S        -1.5750709130       18.1841326731       31.2809151942
  N        -2.0038087248       17.8124537925       32.8038353784
  C        -2.2452601890       15.7576682050       34.1911334978
  H        -2.6831676706       13.7220680100       34.9153588489
  C         4.1687002064        9.0361863663       12.8169116393
  N         4.1929044874        7.7254513274       12.6705518549
  O         4.0526818669        5.8650324812       14.0121929608
  H         5.2914464191       10.3811268716       31.9594498856
  H         5.3662533587       10.1797855172       30.2506203305
  C         4.8802267741        8.4087094516       31.4915641916
  H        -6.4738110659        9.0273192946       25.3138531077
  H        -7.3362982408        9.3158746146       26.8435604664
  C        -7.7020644058       10.7068044071       25.2130290875
  C        -2.4807355221       16.5913301414       35.3200403691
  S         4.6935089187       10.0279696040       11.4104315060
  C         4.2802244039        6.9611371620       11.3669580339
  H         5.8142034897        8.2060595021       32.0701098890
  H         4.0467068447        8.1260031401       32.1737758101
  C         4.9220511582        7.4995778351       30.2201134532
  H        -7.2409091976       11.1088994685       24.2936369727
  H        -8.0093434288       11.6079985340       25.8152831348
  C        -8.9328224129        9.9758963004       24.6533573314
  H        -2.3221304092       17.6415664654       35.1851322299
  C        -2.8979634101       16.2306161711       36.5877231320
  H         4.9804358508        7.3765094480       10.6657300043
  H         4.7487862382        5.9943522994       11.4764960647
  C         2.8930687316        6.7395448520       10.8107763263
  H         5.3009328374        8.0268882698       29.3380319932
  H         3.9366274539        7.1504496224       30.0325483388
  C         5.7505018872        6.1810557719       30.5576430925
  H        -9.3826932084       10.3021072463       23.6862639373
  H        -8.6138426799        8.9528223105       24.4536542370
  C       -10.0212447746        9.8976505926       25.7185514551
  S        -3.4052075581       14.6474556642       37.0958596533
  C        -3.0687208427       17.2975192444       37.5966783359
  H         2.4592849912        5.7367217978       10.8088328934
  H         2.1629133403        7.4764971126       11.1412661457
  H         3.0168240655        6.9612619774        9.6952145189
  H         5.9134462554        5.5446802648       29.6471545846
  H         5.3826220786        5.6539877262       31.4035303512
  H         6.7713252964        6.4143092188       30.8326450851
  H        -9.6557521127        9.4280877798       26.6198331742
  H       -10.8641735584        9.2697554726       25.3911824455
  H       -10.4538657037       10.8346995767       26.0359122916
  C        -3.8892886890       15.4408117044       38.5736459306
  N        -3.6277410622       16.7227978358       38.6776715011
  O        -2.8854591722       18.4399404049       37.4018390427
  S        -4.5429948739       14.6950850505       39.9989523760
  C        -3.7325428949       17.5463746673       39.8796925142
  H        -3.9940139099       18.5789765105       39.6381777444
  H        -4.6353856039       17.3332229045       40.4763290651
  C        -2.5164869813       17.6447490293       40.6872186228
  H        -2.4344012490       18.5652388970       41.2128983465
  H        -2.4862702604       16.8435609282       41.4114105668
  H        -1.6248450441       17.5379293997       40.1071588595
