352
i=
  H         4.1818222685        1.1759875576       12.7468483797
  C         3.7203735425        2.1230101218       12.9192615667
  H         4.5464133132        2.7881097420       13.0624211633
  C         3.0146950965        2.4388508324       11.5744084272
  C         2.7998741471        2.1678264886       14.0681803304
  C         3.9629003791        2.5583629616       10.3092919118
  H         2.4783787713        3.3735837263       11.6233541423
  H         2.2384004064        1.6741405021       11.4605638908
  H         2.3346631383        1.1533306210       14.0611050838
  H         1.8944352969        2.8040096885       13.8790513025
  H         3.3412638426        2.3921143566       14.9973345777
  C         4.5896831146        1.2218586466        9.8973932696
  H         3.3957665814        3.0858883495        9.4856169457
  H         4.7016870477        3.3925667034       10.5422262110
  C         5.3669629620        1.3664860107        8.6027260275
  H         3.8487040215        0.4260846466        9.7397712479
  H         5.3224867170        0.8979759895       10.5884483758
  C         6.6177577033        2.2887471624        8.7095863156
  H         4.6111745295        1.8687481334        8.0606934293
  H         5.5868037624        0.3684553095        8.2868990441
  C         7.8192403399        1.6367223716        9.3540631500
  H         6.8787156903        2.6909606562        7.7272403931
  H         6.3746125005        3.2172514987        9.1850901459
  C         9.0937057182        2.5248544979        9.2801250226
  H         8.1423954769        0.8060943326        8.8181211776
  H         7.6394595251        1.2227663134       10.3461467065
  C         8.7012232752        3.8110298061       10.0863842799
  C         9.5459822760        3.3498607598        8.1280343246
  C        10.3245452604        1.7194413654        9.8945737753
  C         9.0304372798        4.9800999100        9.3711957479
  C         8.1395724567        4.1813592198       11.3268595794
  C         9.4772092594        4.6640990636        8.0958010378
  C        10.0923137215        2.7769750897        6.9700626397
  H        10.0297582249        1.1599652244       10.7242325754
  H        10.5707468332        1.0002572578        9.2007333001
  C        11.4973330505        2.6632918014       10.4093627645
  S         8.6859801488        6.4514295058       10.1983338476
  C         8.0364322380        5.5503678894       11.4981344380
  H         7.9491350657        3.3847026440       12.0704605089
  C         9.8982432954        5.3436919745        7.0020024762
  H        10.3723445822        1.7295440497        7.0788379519
  C        10.4579749264        3.4387619628        5.8546591954
  H        11.0229776858        3.5835994788       10.6523745763
  H        12.1839511100        2.7903635693        9.5328211566
  C        12.2935289750        2.0656599698       11.6718531510
  C         7.6518169910        6.1275110664       12.8151766828
  C        10.3745001264        4.7986397832        5.7873407334
  H         9.8702156927        6.4452555412        7.0639944486
  C        10.8713094134        3.0910597645        4.6034014577
  H        13.2931514453        2.5397137079       11.7955322487
  H        12.4761185304        1.0149352691       11.5449351027
  C        11.5881076655        2.2915744054       13.0132440959
  C         7.5490283580        7.5217367812       13.0170703821
  C         7.1429817837        5.2812484123       13.9798632129
  C        10.7232527989        5.5044940766        4.4911001132
  C        11.0327761119        4.1826125125        3.7667953834
  S        11.3397209577        1.6726815479        3.8520780991
  H        11.6307114503        3.3540503378       13.2591299268
  H        10.4813866984        2.0608512363       12.9031292321
  C        12.2344371269        1.5210005131       14.1596891643
  N         7.6899046379        8.5342746780       11.9825574991
  C         7.1471626796        8.0265992419       14.2309813950
  C         6.9824296236        5.8671357693       15.2666417503
  H         7.0349348807        4.2332251902       13.8792624303
  C        12.0427852633        6.3323237313        4.5449837406
  C         9.5245975037        6.2570223784        3.9321014459
  C        11.4105777192        3.8484692275        2.4837924674
  C        11.4931566797        2.4785243297        2.3252957014
  H        13.2941879648        1.3174225108       13.8708015669
  H        11.5845670967        0.6565628400       14.3292581819
  C        12.1750675921        2.3408207672       15.4846899641
  S         7.6012296096        9.9350874064       12.7735551068
  N         7.0634631561        9.4118346658       14.2283266207
  C         6.9349100731        7.3301963557       15.4186585556
  H         6.7842939890        5.1807150302       16.0505832553
  H        11.8031857440        7.3348946737        4.9308443971
  H        12.2652959090        6.5939565095        3.5662587142
  C        13.2384282782        5.4752608456        5.1753081357
  H         9.3174814013        7.1307449381        4.5480349978
  H         9.9672957158        6.6901946239        2.9940195981
  C         8.2766718915        5.3812105159        3.5453415828
  H        11.4282348980        4.6386011915        1.7103023961
  C        11.9497635968        1.7284399045        1.1205946508
  H        11.7633503278        3.3365180981       15.3236759345
  H        11.4452995862        1.7719676729       16.1021207192
  C        13.4256182704        2.4350753284       16.2985175260
  C         6.7237260473        8.1424697579       16.5806445423
  H        12.9125594166        5.0827001980        6.1497909747
  H        13.4047258695        4.6086054915        4.4851040228
  C        14.5195103108        6.3136276809        5.3333034590
  H         7.8069709582        4.7750358692        4.3157117599
  H         8.6498923678        4.5440706588        2.9198465814
  C         7.3306697410        6.3399887462        2.7726527775
  C        12.0600346789        0.3036302214        1.0427952740
  C        12.2425176037        2.4230551378       -0.1347196844
  H        13.9883306260        3.2308407914       15.8524018361
  H        13.9971739358        1.4287437185       16.3071828971
  C        13.1716130809        2.9413411013       17.7208191676
  H         6.8765119395        9.1792345763       16.5060960533
  C         6.2838883322        7.8503033220       17.8044079455
  H        14.2212155685        7.3983590486        5.5996598178
  H        14.9820170853        6.2603019360        4.3409607747
  C        15.3873112619        5.6902636314        6.4117524614
  H         7.0376261647        7.0561506468        3.5488293229
  H         7.8173996600        6.8111547088        1.9539337268
  C         6.1268284351        5.6672721011        2.1753722986
  N        11.7671958871       -0.6091213992        2.0518377871
  C        12.3044404352       -0.3433881412       -0.2223962587
  C        12.5119129390        1.8062215134       -1.3602377591
  H        11.9645008329        3.5201778941       -0.1536350264
  H        12.2852275208        3.5541841522       17.6838314003
  H        14.0280080672        3.4920516709       18.1381599245
  H        13.1061125423        2.0583426633       18.3862354850
  S         5.8145848067        6.2853326958       18.3532019873
  C         6.2579424242        8.9820542108       18.8078949088
  H        15.1320590288        5.8835814578        7.4384655839
  H        15.2097667048        4.6023125589        6.2681627033
  C        16.8086131301        5.9244332688        6.0510498610
  H         5.7242671403        4.8163530155        2.7542263194
  H         6.5113581369        5.3067036877        1.2816737222
  C         4.9434776277        6.5503558667        1.8669611050
  S        12.1071949651       -2.0822089229        1.3961772585
  N        12.2629802730       -1.7003341426       -0.1475220620
  C        12.5611288327        0.3089714715       -1.4576297401
  H        12.6828213146        2.4781211078       -2.2044610433
  C         5.7048049936        7.1016964483       19.9302792794
  N         5.8312765447        8.4614513311       19.9918324194
  O         6.6244423412       10.1404309755       18.6255622249
  H        16.9512564839        5.9145236919        4.9631397388
  H        17.0268899934        6.9109792402        6.3462188225
  C        17.6892474567        4.9790126735        6.8819386795
  H         4.3108939116        5.9476580990        1.1811591027
  H         4.3624332535        6.7945900542        2.7374628329
  C         5.3542976738        7.8721593740        1.1675896714
  C        12.6920164360       -0.4983350726       -2.6372498889
  S         5.1027723592        6.2191739447       21.3522208435
  C         5.7700336794        9.2762354971       21.2419690068
  H        17.0635449865        4.7063670175        7.7535733269
  H        17.8482477697        4.0299874823        6.3967487100
  C        19.0707383888        5.4395385057        7.2789949722
  H         5.9477958021        7.6058638115        0.2949517435
  H         6.0012020358        8.4724583155        1.7573748865
  C         4.1998852431        8.7858699443        0.8002680435
  H        12.3312885443       -1.5260640530       -2.5586710419
  C        13.3079767305       -0.2598445231       -3.8425875124
  H         5.1785769655        8.6687303542       22.0323884218
  H         5.1867355605       10.1946396101       21.0278592936
  C         7.1723180795        9.6779207002       21.8347577930
  H        19.4907139356        4.6418354073        7.9370415368
  H        19.0154330289        6.3746260739        7.8652704999
  C        20.0576671616        5.4193469055        6.0831978152
  H         3.8072229280        8.6165196373       -0.1965527553
  H         3.3037801485        8.6838652436        1.4698289371
  C         4.5651401701       10.3028377290        0.8717440533
  S        13.9059279954        1.2104937959       -4.4300548492
  C        13.3514987806       -1.4273698329       -4.8050393109
  H         7.2275145350        9.6047758248       22.8750150246
  H         7.4871510024       10.6657021884       21.4366782960
  H         7.8787600311        8.9874490046       21.2437584981
  H        19.9648429654        4.5679657413        5.3744943671
  H        19.7172992331        6.3082747304        5.5346513720
  H        21.1065164885        5.4646132904        6.3221574540
  H         4.3064946349       10.7268321823        1.8691143797
  H         5.5873610370       10.4838140539        0.7380988566
  H         3.9592666131       10.9488072323        0.2356041268
  C        14.2885553687        0.3086759127       -5.9113679214
  N        13.9531930517       -1.0088716246       -5.9806467306
  O        13.0229590337       -2.5967651274       -4.4310042309
  S        15.0969404750        0.9810074172       -7.3236675770
  C        14.0990059827       -1.8807320885       -7.1687105236
  H        14.2210581602       -2.8862639146       -6.6715274863
  H        14.9406178891       -1.7629204025       -7.8574418929
  C        12.7702295387       -1.7527888532       -7.9446143823
  H        12.1193759765       -2.6557037574       -8.0164320022
  H        13.0911919937       -1.6479671717       -8.9304586047
  H        12.1407788847       -0.8491995276       -7.6699979363
  H        -2.6932744677       14.9731327236       16.4166130403
  C        -2.7950424453       13.9806095175       16.2371563928
  H        -3.8013617781       13.6874516453       16.4200139054
  C        -2.0318701426       13.2833431177       17.3323769054
  C        -2.5160480180       13.5585810105       14.8684983666
  C        -2.5363169948       13.8732642374       18.6294139190
  H        -2.2566526099       12.2113282435       17.3075330547
  H        -0.9692561946       13.4389530561       17.0846100478
  H        -3.3515896006       13.6146488578       14.2442691609
  H        -1.7766515722       14.1617893422       14.3681752690
  H        -2.2356645579       12.5043161114       15.0081772770
  C        -1.6560471711       13.2504305966       19.7088081806
  H        -3.5627795028       13.6490421657       18.7890913929
  H        -2.2914724218       14.8884777626       18.6772166643
  C        -2.1084737507       13.4643796846       21.1473141162
  H        -1.5707033203       12.1974430958       19.5114713003
  H        -0.6440986315       13.6106350821       19.5578950659
  C        -1.1600635147       12.8356475937       22.1501706720
  H        -3.0932530692       12.9463328472       21.3102953703
  H        -2.3725650481       14.5127648811       21.3774400925
  C        -0.0393694281       13.7615489291       22.6103585969
  H        -1.7671425677       12.5057771258       23.0495800880
  H        -0.7674752432       11.8491016112       21.7858142487
  C         1.1147599919       13.1309967168       23.4813093723
  H         0.3866425141       14.1573021894       21.7440557695
  H        -0.5217306288       14.5674655761       23.1057162202
  C         1.6223950711       11.8240696611       22.7423235878
  C         0.7601642372       12.3163075111       24.7049653371
  C         2.3197346533       14.1273286375       23.6926189142
  C         1.4092104337       10.6368849290       23.4584072655
  C         2.2239652159       11.5200982263       21.4826594775
  C         0.9713692242       10.9318706639       24.7140006519
  C         0.2807111930       12.9128172259       25.8693947261
  H         2.3129380868       14.8545411524       22.8950786576
  H         2.1283186147       14.6793259996       24.5902950077
  C         3.6486104669       13.5331182030       24.0244045654
  S         1.7987357148        9.1593582892       22.5732548688
  C         2.2208493159       10.1842275135       21.1537158982
  H         2.4964819691       12.3284597472       20.7989010102
  C         0.6734462848       10.2948224462       25.8808096443
  H         0.0452320440       13.9444639392       25.7013873436
  C        -0.0168821110       12.2222317874       27.0070304324
  H         3.8885597432       12.8247369623       23.2342100381
  H         3.4618395648       12.9983926556       24.9517208713
  C         4.7872062008       14.5774744650       24.1008180818
  C         2.5470757293        9.4647379722       19.8081463415
  C         0.1365894708       10.9123286267       27.0575613480
  H         0.7649619084        9.2386795338       25.8693212495
  C        -0.4493932203       12.5840521643       28.2242688984
  H         5.5848309968       14.1781447839       24.7590772559
  H         4.4737009897       15.5132586177       24.6356732357
  C         5.4122916007       14.9495907544       22.7591064607
  C         2.4960131264        8.0632098151       19.4729278490
  C         2.9515159241       10.3617795862       18.7212443209
  C        -0.3064341960       10.1312357346       28.3465702410
  C        -0.6220684426       11.4927393159       29.0837406466
  S        -0.6193901131       14.1551451256       28.9197672884
  H         5.8437678115       15.9623399799       22.9425934251
  H         4.6959564878       15.2036217981       22.0409239590
  C         6.4323800819       14.0512039640       22.1702660634
  N         2.0928947970        7.0850053249       20.4004410028
  C         2.7421531888        7.5033443581       18.2476579070
  C         3.2769061790        9.8208975253       17.4752144452
  H         2.9406265373       11.4654093202       18.8807936500
  C         0.8313059794        9.4214710915       29.0549956661
  C        -1.6167598678        9.2522021624       28.2035464265
  C        -0.8746999702       11.9367946126       30.3904325513
  C        -0.9855941823       13.3120754707       30.4316347502
  H         7.4125411580       14.5622909532       22.1825614865
  H         6.6676233098       13.3103437828       22.9318248898
  C         6.0055999021       13.6177638452       20.7727354925
  S         2.1853567390        5.6033776509       19.7305015781
  N         2.6530965063        6.1400239329       18.2413629825
  C         3.1088453301        8.3514877126       17.1773727840
  H         3.5672033816       10.5175347919       16.7200210275
  H         1.1080896048        8.5721075923       28.4170771742
  H         0.3680634476        8.8917353297       29.9461682900
  C         1.9495300998       10.2400624329       29.5409358028
  H        -1.5001213992        8.4476386071       27.4592772469
  H        -1.8826774831        8.6272291777       29.0897881171
  C        -2.7658063788       10.1141847760       27.6047644621
  H        -0.9335501767       11.1003226246       31.0971141269
  C        -1.3603473334       14.1153668220       31.6099352054
  H         5.0914453651       14.1139332651       20.4188290434
  H         5.7341430827       12.5936755325       20.7399164469
  C         7.2150972565       13.5726078802       19.7701316364
  C         3.3538775127        7.6372093408       15.9498276474
  H         2.1820218960       10.8110460286       28.6634274300
  H         1.7023051568       10.9349571038       30.3651875482
  C         3.1082424354        9.3919987468       30.1614926638
  H        -2.4649151093       10.8290058519       26.8394330406
  H        -3.1731112108       10.7965596154       28.3221032490
  C        -4.0040031546        9.2452772389       27.2212459699
  C        -1.5567404448       15.5385994776       31.7316726894
  C        -1.6456706382       13.4382664849       32.8953484811
  H         7.9624244670       14.2662002821       19.9600135065
  H         7.6397437054       12.5723730286       19.9191393262
  C         6.7868984937       13.5879368063       18.2873039796
  H         3.4937385628        6.5795926332       16.0525549582
  C         3.6877528463        7.9590929482       14.6376139046
  H         3.0956878531        8.3972956564       29.7622284822
  H         2.8489663234        9.2313823486       31.1853587666
  C         4.3794759049       10.1995297351       30.1348467602
  H        -3.7782558561        8.4898324872       26.5013769704
  H        -4.5774491297        8.8872024944       28.0377025729
  C        -5.0069610892       10.1615615786       26.5433551715
  N        -1.3081273819       16.4771413617       30.7330414622
  C        -1.9163319035       16.1631649882       32.8655421713
  C        -2.0328430579       14.1182586908       34.0795892696
  H        -1.4499161297       12.3719706304       32.9994700787
  H         5.6995904039       13.5826954312       18.0428412355
  H         7.1882732763       14.5010906145       17.8308077733
  H         7.1174098222       12.6920696347       17.7887122738
  S         3.7654331467        9.5304277399       14.0210251598
  C         3.8441155441        6.8833625925       13.6475742049
  H         4.4307031043       10.9944193051       29.3581378368
  H         4.4904060785       10.7598628708       31.0890122350
  C         5.6039771891        9.2231031442       29.9577003387
  H        -4.5250437885       10.6170087760       25.7509349077
  H        -5.2000251981       10.8844984752       27.3188926963
  C        -6.2743642443        9.4700868114       26.1000163371
  S        -1.5940999428       18.0062602948       31.2775952052
  N        -1.8975878369       17.5667844758       32.7926348701
  C        -2.1159784536       15.5586987280       34.0999504364
  H        -2.2293364334       13.5940861172       35.0004021878
  C         4.0439338891        8.8094180321       12.4682960877
  N         4.0862965048        7.4476227106       12.4663810683
  O         3.7275979630        5.6932774582       13.7969206232
  H         6.4895122138        9.7523566946       30.3052928866
  H         5.8644825107        9.0118791463       28.9199205099
  C         5.5291399148        7.9535158402       30.7901644435
  H        -6.1478621801        8.5855409480       25.4208312629
  H        -6.6744470040        9.1539069189       27.0224318872
  C        -7.2245927481       10.5385362016       25.5046905809
  C        -2.4671163301       16.3115192093       35.2048700709
  S         4.5792868720        9.5984837458       10.9556239190
  C         3.8108402491        6.7029146120       11.3002156231
  H         4.6638185117        7.9072274345       31.4398127546
  H         5.5099275149        7.1504818089       30.0949972306
  C         6.8385005984        7.7830355530       31.5303888063
  H        -6.7304309695       10.8280602394       24.5313738395
  H        -7.2652648288       11.4660790887       26.1109352229
  C        -8.5859259387        9.8827331063       25.0666507947
  H        -2.2534998950       17.3626730185       35.1793390107
  C        -3.0924599904       16.0350573585       36.4037128665
  H         4.3972778565        7.0640763598       10.4778161886
  H         4.2006426597        5.6787495078       11.3360082966
  C         2.3011125421        6.5895341486       10.9331194576
  H         7.0723005883        8.6723716347       32.0807885738
  H         7.5961546384        7.6056233219       30.7360152046
  C         6.7802632555        6.6316740993       32.5242695345
  H        -8.9200655098       10.4237286283       24.1308026718
  H        -8.5210612088        8.8093328930       24.8857761451
  C        -9.5998830090        9.9786866621       26.1815492473
  S        -3.5847322051       14.4055958461       36.9202601025
  C        -3.1572937501       17.1351386707       37.4448351557
  H         2.0234097494        7.4976081428       10.4217926012
  H         2.2320801658        5.8999857380       10.0523813694
  H         1.5949968813        6.3265305549       11.6967110071
  H         7.7627749707        6.4080447644       32.9284485960
  H         6.5325349136        5.6859106135       32.0610919749
  H         6.0064538075        6.8177226180       33.3296507575
  H        -9.2754796232        9.4182343069       27.0580070758
  H       -10.4419141102        9.5063009587       25.7160136163
  H        -9.7757355669       11.0335281377       26.4110236682
  C        -4.0316400284       15.1861288166       38.4292934519
  N        -3.6904231384       16.5177719397       38.5305024551
  O        -2.6233414958       18.1915327095       37.2935428897
  S        -4.6759889138       14.4226792143       39.7999860471
  C        -3.7949947198       17.2526191392       39.8190102015
  H        -3.8829755584       18.2493808978       39.5551164633
  H        -4.7571057558       16.9630149590       40.2565506467
  C        -2.4606117580       16.9759131418       40.5939686143
  H        -1.9835019406       16.0213948028       40.3864458554
  H        -1.7643303516       17.8162527994       40.4957638891
  H        -2.8413182574       16.9546175125       41.5563066244
