352
i=
  H         2.5067191681        3.4348811816       12.7119711017
  C         2.7476316759        2.3893290676       12.7305869827
  H         1.9651930095        1.9542133495       13.3469456271
  C         2.4852436879        1.8678643853       11.2862960569
  C         4.2062923157        2.0892464337       13.1436772845
  C         3.4227758888        2.5155303974       10.2851684155
  H         1.4355670862        2.0528815883       10.9104138913
  H         2.7286141786        0.8054539988       11.1828813084
  H         4.6129222176        1.1842239593       12.7369117256
  H         4.1297037708        1.9788447472       14.2609912488
  H         4.8758953228        2.9535879784       12.8849013107
  C         4.4234957576        1.4862693754        9.6456807002
  H         2.7204205481        2.9833400220        9.5991048645
  H         3.9663700765        3.3307750402       10.7629406713
  C         5.1068871155        1.8813127447        8.2998656118
  H         3.7796563078        0.6255911431        9.4085712660
  H         5.0888483765        1.0764369583       10.3753048478
  C         6.3839784830        2.8067125270        8.5541804826
  H         4.3965433249        2.5572968569        7.8248609013
  H         5.3349086878        1.0901931901        7.6053910953
  C         7.6068532628        2.0384867947        9.1384184267
  H         6.7078912148        3.3234282324        7.6688368120
  H         5.9476917696        3.4901127849        9.2818327989
  C         8.8272868736        2.9094624169        9.2774041388
  H         7.8430612136        1.1748844930        8.5207823110
  H         7.3219839411        1.5683061253       10.1417633468
  C         8.4339261909        4.2477001148        9.8874359500
  C         9.2437137791        3.5763337430        7.9956659804
  C         9.9603967783        2.2258537091       10.1582820696
  C         8.7235465699        5.3269562138        9.0516143448
  C         7.9299388741        4.6259119379       11.1047669147
  C         9.2454288684        4.8761272506        7.8707569951
  C         9.7508824510        2.9198941967        6.8806413572
  H         9.5763892193        2.1229381050       11.2059784393
  H        10.0768650647        1.2643056950        9.6867290510
  C        11.2918897674        3.0112926187       10.0922584899
  S         8.2455830056        6.8297455926        9.7054140276
  C         7.8432386381        5.9781580723       11.1500781054
  H         7.7009149691        3.7773175462       11.8779398848
  C         9.7236731436        5.5196242704        6.7592435103
  H         9.7023259300        1.8420386618        6.8445676981
  C        10.1730762040        3.5351308578        5.7510892776
  H        11.1605255378        4.0885899287       10.1239820535
  H        11.7047776676        2.8996150969        9.0742556072
  C        12.2651227468        2.5426733289       11.1582212259
  C         7.4210898243        6.7064256650       12.4010493176
  C        10.2503585119        4.8796871472        5.6857323214
  H         9.6939424709        6.6037326630        6.6871581799
  C        10.7500594492        3.1526553911        4.5694396689
  H        13.2180352599        2.9703436627       11.0563977646
  H        12.3422412563        1.4389751477       11.0980640624
  C        11.7679859336        2.8774620695       12.6262432942
  C         7.3594616885        8.1076441511       12.6457275284
  C         7.1634495129        5.8292218663       13.5905473970
  C        10.6520007606        5.5466703252        4.4010603788
  C        10.9913319910        4.1992363262        3.7235247591
  S        11.0177963520        1.6733926699        3.8554761336
  H        12.2442196621        3.8977222642       12.8123537363
  H        10.7411573082        3.2116576030       12.6890819937
  C        12.1292594793        1.7693995953       13.7000116672
  N         7.6266414219        9.0864839253       11.6867681836
  C         7.1879893891        8.6920892756       13.9143100751
  C         6.9778566733        6.4516084458       14.8664350629
  H         7.0296039301        4.7505171064       13.5546562220
  C        11.9430675188        6.4555371669        4.5208331613
  C         9.5040333005        6.2471246647        3.7117244079
  C        11.3990416225        3.7758375679        2.4523102070
  C        11.5149124792        2.4287585034        2.3278915725
  H        13.2018447116        1.5110247606       13.5102839145
  H        11.5578280362        0.8536219477       13.4714576810
  C        11.8614542438        2.3206009107       15.0535740906
  S         7.3410595469       10.5032272047       12.3362202222
  N         7.3259833925       10.0401086217       13.8669442491
  C         7.0228227236        7.9371956640       15.0997049843
  H         6.7786141192        5.8133457613       15.7429204610
  H        11.8959903820        6.9997489464        5.4102037294
  H        11.9625198744        7.2443903926        3.7875101704
  C        13.2770213842        5.7526994258        4.7322474481
  H         9.1395736490        7.0707248739        4.3258645630
  H         9.8939670557        6.7374315207        2.8389530207
  C         8.4315195460        5.2638856965        3.2541116330
  H        11.4762396062        4.4976044663        1.6365348336
  C        11.8255279695        1.6026674419        1.1020188376
  H        11.5124728998        3.3513602345       15.0206684729
  H        11.0269140759        1.8018980331       15.4192031130
  C        12.9702474486        1.9890588718       16.0733554842
  C         6.7750874280        8.6093959261       16.3500806618
  H        13.1372521507        5.1182934372        5.5882558542
  H        13.5066136291        5.0340504263        3.9168824183
  C        14.4742083292        6.6256772929        4.8686360571
  H         8.1919098570        4.5418798606        4.0693067746
  H         8.7959496889        4.7116579691        2.3946222462
  C         7.1213479272        5.9592702651        2.8538335642
  C        11.8829483363        0.1649043566        0.9234182916
  C        12.0200335775        2.3532903023       -0.2115116337
  H        13.9086895928        2.4771953104       15.7603687778
  H        13.2392260879        0.9397764328       16.0598136872
  C        12.6046524152        2.5223808369       17.4325936100
  H         6.7848452403        9.7109492064       16.2361516864
  C         6.5378167057        8.2629858119       17.7031355553
  H        14.1034850540        7.6066371646        5.1218459292
  H        14.9078273633        6.6982632652        3.8686160256
  C        15.4151181686        6.1511889572        6.0102068242
  H         6.3573178882        5.2811125295        2.7162798319
  H         6.6947007124        6.5713385428        3.6327821373
  C         7.3013890286        6.7019221030        1.5867091497
  N        11.6985349702       -0.7916837683        1.9447650262
  C        12.1652139623       -0.4507147071       -0.2686600491
  C        12.1387654920        1.6783485111       -1.4380395798
  H        12.1214596679        3.3885195021       -0.2293270195
  H        13.3460185414        2.2812376622       18.1899805621
  H        11.6076839577        2.1460962551       17.7409521009
  H        12.6295845945        3.6279411966       17.2715023902
  S         6.3027366581        6.6905011732       18.3161309426
  C         6.4221878309        9.3314990062       18.6817453261
  H        16.1683026736        6.9646764149        6.0186290666
  H        15.0270678863        6.1622700657        7.0234091907
  C        16.1671731143        4.8161840727        5.7133503747
  H         7.7936098483        6.0800709419        0.8129964622
  H         7.9872218511        7.5520039878        1.8030841147
  C         6.0411303618        7.1194594281        0.9277381614
  S        11.7170176571       -2.2976424289        1.3170984368
  N        12.1667914424       -1.8383075009       -0.1772619123
  C        12.3060328148        0.2208755465       -1.4629374763
  H        12.2442818824        2.2798968973       -2.3280258434
  C         5.9899632747        7.4660031176       19.8425727196
  N         6.0362359595        8.7708519188       19.8642597498
  O         6.6431538055       10.5381990454       18.5106910748
  H        15.3440238708        4.0789111775        5.5827676739
  H        16.7275097152        4.7904693824        4.7825869588
  C        17.0583130162        4.3404605493        6.8529980315
  H         6.3782903777        7.8175214984        0.1306204010
  H         5.6828932817        6.2410706054        0.3379542979
  C         4.9171241109        7.7838714364        1.7593334180
  C        12.5567004662       -0.5393805956       -2.6554946863
  S         5.7095102165        6.5822661012       21.3401757563
  C         5.9263820054        9.5058006104       21.1481079078
  H        16.4042536631        4.0355080634        7.6917887061
  H        17.4409021892        3.4005823876        6.5151936678
  C        18.1610267412        5.3541251493        7.2719129540
  H         5.2232182738        8.0787478261        2.7322414435
  H         4.1441943007        6.9731245397        1.9669901203
  C         4.3553802450        9.0434625855        1.0560746483
  H        12.2051901463       -1.5112638291       -2.6393923202
  C        13.1153746279       -0.3108655352       -3.8788642061
  H         5.1006039124        9.2029679389       21.7716621757
  H         5.5078878337       10.4781554620       20.8329193943
  C         7.1667666919        9.5928948404       21.9412091198
  H        18.5288854603        5.0783260165        8.2824710266
  H        17.7833596520        6.3848109759        7.3794943869
  C        19.3712797714        5.4146559892        6.3858714783
  H         5.1713551857        9.5942964837        0.6688518501
  H         3.7686195174        8.7966270143        0.1453371176
  C         3.5342652444        9.9649196120        2.0417692404
  S        13.6299683869        1.2435087143       -4.4098183389
  C        13.2344942804       -1.3728201803       -4.8311958135
  H         8.0808994811        9.3974704236       21.3517156580
  H         7.0928499656        8.9858384526       22.8056069534
  H         7.2378967976       10.6523579893       22.2780635731
  H        19.4302742053        6.1648934166        5.5418190998
  H        20.3467377328        5.5690026660        6.8862604435
  H        19.4117930541        4.5075639778        5.8357349730
  H         3.0702199562        9.4967750474        2.8823375678
  H         4.0330077994       10.8795139063        2.3516760032
  H         2.6286444756       10.3830258080        1.5179386858
  C        14.0085042849        0.4849348669       -5.9864189758
  N        13.7597219197       -0.8776614167       -5.9726401163
  O        12.7115783211       -2.4800017921       -4.7540223285
  S        14.4962768365        1.2017456917       -7.5161284736
  C        13.7812981686       -1.7064291608       -7.2104555446
  H        13.9037197062       -2.8308646049       -7.1265509619
  H        14.6820958870       -1.4095745736       -7.8034507612
  C        12.3873287781       -1.4777666185       -7.9533615193
  H        12.1551151983       -0.3328307422       -7.8438225210
  H        11.5898704342       -2.0515713467       -7.5155268169
  H        12.4330483299       -1.7781222648       -9.0044685921
  H        -2.4940701427       12.0104843502       17.0980014687
  C        -2.6392150296       12.9622521420       16.5895915576
  H        -1.7585004439       13.5169734713       16.3915048471
  C        -3.4712411839       13.8209776805       17.5663827500
  C        -3.3806550350       12.6720185749       15.2914448970
  C        -3.6108303511       13.1995606234       18.9666643367
  H        -3.0625849525       14.8264063151       17.5910365021
  H        -4.4505116209       13.9126952055       17.1884545029
  H        -2.6906506463       12.2277845609       14.5932631603
  H        -4.1725123271       11.9916888535       15.5367102669
  H        -3.8581753878       13.5462143488       14.8897511447
  C        -2.3016541377       13.2171943712       19.7743693648
  H        -4.0623334195       12.2244347389       18.8291797070
  H        -4.2432401836       13.7668429909       19.5707816134
  C        -2.6615169480       13.1577322694       21.3047332167
  H        -1.5137327276       12.5234191705       19.5478954224
  H        -1.8005857931       14.1489996723       19.4493148801
  C        -1.6039832399       12.4834472571       22.2378123388
  H        -3.5639596266       12.5946146454       21.4209827287
  H        -2.9581421075       14.1269644615       21.6121684115
  C        -0.4605532569       13.4296170001       22.6029586712
  H        -2.0547672714       12.2705561071       23.2025637556
  H        -1.2686060936       11.5151099001       21.7981450845
  C         0.6470229719       12.8376044371       23.4674813001
  H        -0.0171251886       13.7571330496       21.6616126198
  H        -0.8149397252       14.2700357902       23.0410889240
  C         1.0809337965       11.5587964566       22.7874869005
  C         0.1466882793       12.0916027765       24.6682902267
  C         1.7513473337       13.8315221744       23.6573793346
  C         0.9841930968       10.4658780392       23.6360583961
  C         1.6594615201       11.1656602465       21.5866638836
  C         0.3719477410       10.7789074847       24.7953349100
  C        -0.3145609528       12.7435601861       25.8292974435
  H         2.0355831047       14.1981080511       22.6867673167
  H         1.3557524106       14.5882998477       24.2928497628
  C         2.9821340659       13.2398405291       24.2792443709
  S         1.5509202312        8.9488197430       22.9949803448
  C         1.8414743990        9.8212680548       21.5322120651
  H         1.7587313794       11.9149396024       20.7997191600
  C         0.0658007240       10.1399187671       25.9760493436
  H        -0.3916219909       13.7961512305       25.8475280900
  C        -0.6574489442       12.0486100771       26.9636970084
  H         3.4123002060       12.5191824267       23.6062960339
  H         2.7145662837       12.7070291682       25.1839381459
  C         4.0438619499       14.3236260474       24.6831352496
  C         2.2611259327        9.0630708562       20.2978117418
  C        -0.6009672381       10.7380837324       27.1067697197
  H         0.3378947502        9.0727033585       26.0608913109
  C        -1.1347075493       12.5433310520       28.1946450062
  H         4.7227605251       13.9288139711       25.3984208170
  H         3.6489539966       15.2406974656       25.1282663858
  C         4.8379485456       14.7450461331       23.4273799350
  C         2.3693571222        7.6588321355       20.1508647665
  C         2.4674139570        9.8408602376       19.1791645635
  C        -1.0603567280       10.1616058452       28.3803272030
  C        -1.3939138040       11.4482434031       29.0255199132
  S        -1.3918220078       14.0394660849       28.9828646845
  H         5.5229644953       15.5252192747       23.7359583626
  H         4.1519233605       15.2154470148       22.7051775676
  C         5.5600318274       13.6814926364       22.6392971905
  N         2.0739749518        6.7253409156       21.1209500109
  C         2.7217379464        7.1001279776       18.9373219484
  C         2.8932425201        9.3112979420       17.9951467861
  H         2.6058791001       10.8991851237       19.3502786588
  C         0.1113673107        9.3836138295       29.0038393663
  C        -2.2725459688        9.2480871658       28.1125104879
  C        -1.8991398866       11.9134405464       30.2810161495
  C        -1.9616631316       13.2924033032       30.3221947555
  H         6.4870125664       13.3421761253       23.0674794421
  H         5.0525192109       12.7573335687       22.5831698476
  C         5.7090831286       13.9523453686       21.1506062365
  S         2.3680726616        5.2401770454       20.5230573911
  N         2.7845225169        5.7012472759       19.0163608779
  C         3.0495747023        7.8337265714       17.7575360310
  H         3.2618803569       10.0295419457       17.3781591929
  H         0.3969177131        8.5183367093       28.5167705101
  H        -0.3224501526        8.9815856741       29.8739640569
  C         1.2907867976       10.3264941184       29.4037438372
  H        -1.9891379937        8.5276405407       27.2734224315
  H        -2.5577819003        8.6668663313       29.0088890186
  C        -3.4687992543       10.0402085180       27.6260941086
  H        -2.0579551323       11.1708999129       31.0450034166
  C        -2.1964625589       14.1059876010       31.5516578691
  H         5.6270569416       14.9888475902       21.0376122098
  H         4.8013072474       13.6542528234       20.6129119416
  C         6.9599856553       13.3303704054       20.5164029172
  C         3.4207627379        7.0927281510       16.5596820686
  H         1.6591730911       10.8405670573       28.5329000999
  H         0.9818612824       11.1873794202       29.9949209476
  C         2.4936563299        9.6151248545       29.8873283137
  H        -3.0528898774       10.6336746528       26.8714538902
  H        -3.8576218948       10.6057315444       28.4759413849
  C        -4.6156180936        9.1782782865       27.1637490341
  C        -2.0704827254       15.5188769230       31.7019049266
  C        -2.5372604095       13.3725609249       32.7700795571
  H         7.8252686793       13.7187409702       21.0287281666
  H         7.0193822483       12.2432174802       20.5942317691
  C         6.9736803283       13.7114196651       19.0120085650
  H         3.5764584987        6.0512210150       16.6179594156
  C         3.5586846221        7.5005474849       15.2761789496
  H         2.8272227551        8.9923823263       29.0780785074
  H         2.2302315808        8.9040398528       30.6703308685
  C         3.5480576831       10.5824654630       30.3186313408
  H        -4.4564200148        8.8705301199       26.1496997531
  H        -4.6659030063        8.2609852894       27.6814906390
  C        -5.9627570243        9.8687281238       26.9996688736
  N        -1.7165513750       16.3772299887       30.7290867763
  C        -2.3775112762       16.1760623447       32.8732119230
  C        -2.9078800086       14.0194287303       33.9123816739
  H        -2.8447931536       12.3424921678       32.6258641129
  H         7.9027338212       13.5513753643       18.5056775828
  H         6.3236115976       12.8958938834       18.6145349613
  H         6.5297773800       14.5815807891       18.6208400329
  S         3.6425521094        9.1724634366       14.8180404606
  C         3.6005297070        6.4598509205       14.2290316815
  H         3.6696954030       11.4710479110       29.6369854216
  H         3.1826111156       11.0347757340       31.2356056563
  C         4.9615651654        9.9643040608       30.3931395853
  H        -6.2938246152       10.3601557887       27.9565171677
  H        -6.7044807891        9.0447446763       26.6969143026
  C        -5.9873711387       10.7764974401       25.7230969643
  S        -1.7083837134       17.9285567113       31.3146790062
  N        -2.2904403879       17.6046916523       32.7618484524
  C        -2.7805245156       15.4935959942       34.0451563179
  H        -3.2427398282       13.4128597839       34.7548663204
  C         3.7255502167        8.4990651921       13.1634148115
  N         3.9439474024        7.1391928712       13.1098411000
  O         3.7064747780        5.2730606673       14.3565624162
  H         5.5291299625       10.7949119743       30.9491007189
  H         5.3213751503        9.9377873326       29.3850327587
  C         5.1604649586        8.8219971051       31.2926965521
  H        -5.2414738056       11.5599405030       25.8674462759
  H        -5.5765870389       10.3490445204       24.8396157462
  C        -7.2617295701       11.4063859139       25.2491167082
  C        -3.0886401440       16.2706347762       35.2001095801
  S         4.0213752439        9.5071800315       11.7217867617
  C         4.0080214755        6.4411100356       11.8095189723
  H         5.9081163731        9.2049884952       32.0416198697
  H         4.3094842467        8.5332837803       31.9164110449
  C         5.6602270962        7.5579456840       30.4836716783
  H        -7.1336066590       11.9774574936       24.3371418416
  H        -7.5836488492       12.2237914395       25.9373722445
  C        -8.3840287110       10.4302642372       24.8851532703
  H        -2.8904249889       17.2998202066       35.0449749856
  C        -3.6343379244       15.9429940376       36.4240595059
  H         4.6529120458        7.0272919494       11.1140319755
  H         4.5410362869        5.5240014936       12.0037317725
  C         2.6204109160        6.1206231397       11.1291997226
  H         6.4420268157        7.8575870494       29.7990724210
  H         4.7355340294        7.3137240548       29.8982037236
  C         6.0570502335        6.4304806545       31.4813313754
  H        -8.9015796364       10.5438913310       23.9335611061
  H        -8.0072512705        9.3782708223       24.8322681351
  C        -9.3199285380       10.4040430723       26.0538587321
  S        -4.2470402538       14.4760118840       37.0174374861
  C        -3.5567738976       17.0429411156       37.3944911482
  H         1.8470751971        6.4672341585       11.8054735365
  H         2.3774354415        6.7447252458       10.2606127762
  H         2.5655436640        5.0449332862       10.9237513789
  H         6.7168481308        6.7697069422       32.2869130018
  H         6.6063154140        5.6024112929       31.0477118240
  H         5.0618074706        6.0148122858       31.8655672272
  H        -9.2674807189       11.2305635621       26.7213052218
  H        -9.1148125987        9.4814436114       26.5749385958
  H       -10.3464128420       10.2346366229       25.8033857324
  C        -4.4550993617       15.3176109072       38.5466738983
  N        -4.1787896507       16.6652259606       38.4922661939
  O        -3.1626527098       18.1700949809       37.1290971770
  S        -5.1157270662       14.7080638177       40.0151695701
  C        -4.2228952780       17.6167267037       39.5953883488
  H        -4.4026443363       18.6472097344       39.3206909327
  H        -5.0567776056       17.3408111187       40.2653312881
  C        -3.0042500557       17.5240803629       40.5707902301
  H        -2.6234531103       18.4190733890       41.0042150424
  H        -3.2764222430       17.0693304743       41.5507275114
  H        -2.1044310317       17.0332707428       40.2181032794
