352
i=
  H         4.8315605151        1.4125398916       12.4606939048
  C         4.3635186942        2.3217092419       12.7187219626
  H         5.0885220038        3.1276672145       12.8952021174
  C         3.2478113197        2.6570956445       11.7482896587
  C         3.5954479527        1.9619482097       13.9138076110
  C         3.8301121847        2.7936758379       10.3318210365
  H         2.6090409411        3.5387922536       12.0102166693
  H         2.5313302174        1.8643579920       11.6311161811
  H         4.2879701295        1.6594134780       14.6424972833
  H         2.8853816357        1.1637510647       13.7556005260
  H         2.9207562058        2.8151620858       14.3158748032
  C         4.4987331529        1.5633074665        9.7605526089
  H         3.0711476481        3.0398828075        9.5807016820
  H         4.5519160494        3.6741395152       10.4137136571
  C         5.1511034267        1.7254678272        8.3499535631
  H         3.5844196958        0.9161713265        9.6695786745
  H         5.2368605432        1.0782825146       10.4431317578
  C         6.4363730817        2.5686509825        8.4648130971
  H         4.3866366841        2.2067572953        7.6941360741
  H         5.3445341958        0.8308897093        7.7375500140
  C         7.6694021784        1.9541909069        9.1983760582
  H         6.8419726875        2.6795226903        7.4862781252
  H         6.1186181050        3.5468133144        8.9346287320
  C         8.9396589782        2.8660556452        9.2398652708
  H         7.7733706813        0.9787959152        8.6595921825
  H         7.3439905825        1.6898401945       10.1736939139
  C         8.6900082441        4.1345320134        9.9862231531
  C         9.3206909989        3.5195437460        7.9621230633
  C        10.0451321545        2.0377157894        9.9262692829
  C         9.0493474301        5.2247658930        9.2761363061
  C         8.1698460948        4.5289858263       11.2328644401
  C         9.3938507704        4.8643725646        7.9541225135
  C         9.7096501575        2.9142278082        6.8230348481
  H         9.8875234905        1.6759423850       10.9259894059
  H        10.1839417103        1.1536976919        9.3006768945
  C        11.3426701477        2.7448772521       10.0001801859
  S         8.7152098389        6.7245802681       10.0024494438
  C         8.0197604851        5.8831162227       11.3615746135
  H         8.1008716977        3.8671697256       11.9739197283
  C         9.8094918983        5.4888220536        6.7794423710
  H         9.6472907113        1.8614967067        6.8313810537
  C        10.1984800543        3.4998129751        5.6788325882
  H        11.2370240490        3.7470047643       10.3899870728
  H        11.7797605091        2.8093836863        8.9581291830
  C        12.2992482660        1.9096030141       10.8541548443
  C         7.6106359091        6.5736066112       12.6476680176
  C        10.2294236278        4.8629514076        5.5907697399
  H         9.8804629253        6.5948183999        6.7779148226
  C        10.6358522509        3.0778353649        4.4558322668
  H        13.2842162758        2.0142659769       10.3202349717
  H        12.0199988156        0.9147229379       10.8673245734
  C        12.4085117551        2.4004691477       12.2674168972
  C         7.4293213608        8.0289475956       12.8536860991
  C         7.1494433361        5.7377081814       13.7144042912
  C        10.6932225079        5.5395893813        4.3577053049
  C        10.8277573027        4.1769410625        3.5930369336
  S        10.9402905440        1.6602063018        3.7008289604
  H        13.2640842774        3.0617570124       12.1980957131
  H        11.4792402661        3.0175787820       12.4370764796
  C        12.5714403640        1.4347166065       13.4202434153
  N         7.7841119781        9.0580738461       11.9801238165
  C         7.1236509355        8.5293696917       14.1164895363
  C         6.8838296199        6.2673600960       14.9658889554
  H         7.2741811125        4.6712804959       13.5804582394
  C        11.9880738713        6.3301787322        4.4328969997
  C         9.6455288558        6.3905292933        3.5414830581
  C        11.0137534234        3.8099111164        2.2594813771
  C        11.1741111781        2.4551056222        2.1252458186
  H        13.3690221284        0.6522336206       13.1934662750
  H        11.6090359366        0.9290864640       13.6284074444
  C        13.0301388822        2.1352791826       14.6741666118
  S         7.6106221860       10.5060716577       12.7321305262
  N         7.1504192177        9.9191251995       14.1574688215
  C         6.7895679469        7.7482941083       15.2285017368
  H         6.6667288120        5.5399222132       15.7139614203
  H        11.9174053381        7.0989529297        5.2225556957
  H        12.0593999278        6.9424344197        3.5637435621
  C        13.2304680368        5.4728015180        4.4953468379
  H         9.5296286077        7.3852793852        3.9911465955
  H        10.0235873245        6.5796668787        2.5174953260
  C         8.2703196024        5.6578734795        3.3296670789
  H        11.1121746189        4.6027221226        1.4993774362
  C        11.4823119479        1.6320949674        0.8323474893
  H        14.0915484377        2.3808823310       14.5928790828
  H        12.4274022915        3.0555582686       14.7728333210
  C        12.7764437501        1.2869099646       15.9661059978
  C         6.5727532792        8.3799564242       16.4526409409
  H        13.1089315209        4.6762628226        5.1726514626
  H        13.4054584211        4.9833782094        3.5431967530
  C        14.5087674014        6.1901466772        4.7643339058
  H         7.8529674223        5.6483979375        4.3232448795
  H         8.3334231054        4.7118869719        2.9223847781
  C         7.2793768982        6.4154008905        2.5589753365
  C        11.6383496433        0.2158751988        0.7689515050
  C        11.6438716194        2.3147682293       -0.3861207258
  H        13.4139115140        0.3988722209       15.9396123611
  H        11.7354945593        0.9089785310       16.0474161907
  C        12.8570131862        2.0492275870       17.2163554901
  H         6.3996887793        9.4303223157       16.4270039781
  C         6.3410685173        7.8938107771       17.7292816850
  H        14.3759293439        7.2454142471        5.1498768601
  H        14.9501600945        6.2230760427        3.7872735268
  C        15.5102076528        5.3307261261        5.5444942690
  H         6.9286616953        7.2539348134        3.1729051994
  H         7.7892195731        6.8578961290        1.7263206434
  C         6.2044686040        5.4418312209        1.9921900510
  N        11.3580274022       -0.6532122980        1.7923030756
  C        11.9323152551       -0.4322157710       -0.4267558049
  C        12.0040446540        1.7131912786       -1.5875361846
  H        11.4930886503        3.3618387773       -0.3794084775
  H        13.0540593999        3.1431574490       17.1144487257
  H        13.7703289866        1.6794778774       17.7154820012
  H        12.0057978882        1.8519868141       17.8276491850
  S         6.1630514260        6.2100256662       18.2325028041
  C         6.2383481816        8.8883365139       18.7511417112
  H        15.1099514629        5.0891473549        6.5459996043
  H        15.5994609957        4.3873944330        5.0218462403
  C        16.8629996891        5.9402251052        5.6594308529
  H         5.8940801463        4.7475813470        2.8003331315
  H         6.7291048380        4.8951153109        1.1673116726
  C         4.9738819947        6.0197413644        1.3536918111
  S        11.5567347318       -2.1711391312        1.2590015720
  N        11.8695974791       -1.8396114427       -0.3111281147
  C        12.2074746150        0.2533113162       -1.6846059536
  H        12.1378910709        2.3700694806       -2.4299278030
  C         6.0134039211        6.9087644333       19.8839214881
  N         5.9783548304        8.2878677582       19.9466379081
  O         6.3948678512       10.0944157200       18.4908142343
  H        17.3889485973        5.8629558602        4.7302694428
  H        16.7518172376        7.0276057018        5.8018036228
  C        17.5973087791        5.3423636765        6.7991626564
  H         5.0961030867        5.8143668477        0.3384681202
  H         4.1586904825        5.3467210115        1.6687323716
  C         4.7327960785        7.5391483356        1.6936771171
  C        12.5548907569       -0.4519883399       -2.9042275719
  S         5.5040614292        5.9555418874       21.2583397462
  C         6.2273720600        8.9638452577       21.1996277465
  H        16.9028856379        5.4432718076        7.7196334440
  H        17.8942738692        4.3406908449        6.4925822489
  C        18.9176250873        6.0393176090        7.0972292485
  H         5.5278175583        8.2130686666        1.3036190150
  H         4.8329660630        7.7514642635        2.7705307976
  C         3.4344365144        8.0943730567        1.1538307851
  H        12.2642849233       -1.4732859879       -2.7626270743
  C        12.9656135415       -0.0936296100       -4.1512423857
  H         5.9639793844        8.4381320502       22.1237814981
  H         5.6945873084        9.8735741983       21.2421484122
  C         7.6758269816        9.2165580753       21.3963771408
  H        19.2989685454        5.6861442606        8.0325814958
  H        18.7976037823        7.0753867758        7.2648796513
  C        19.8856888052        5.8505803543        5.9525377613
  H         3.4664778483        7.8632250089        0.0928742097
  H         2.6151801718        7.4455798289        1.6233301093
  C         3.0738972119        9.5900453898        1.2955147112
  S        13.3719574436        1.4902541814       -4.7249142196
  C        13.1088172974       -1.2159314772       -5.1142057032
  H         8.1945366657        8.2944842507       21.2672940708
  H         7.8508267055        9.5737703907       22.4596132681
  H         8.0440016281       10.0648395703       20.7992214649
  H        20.9092816341        5.6830119019        6.2707178443
  H        19.5731595435        4.9925603655        5.3189023339
  H        19.8459916724        6.7244436707        5.2179969705
  H         3.2365075653       10.0097854790        2.2660288007
  H         3.6200921329       10.3052207608        0.5835452399
  H         1.9658982013        9.7590851614        1.0448048432
  C        13.9020244163        0.6530460907       -6.2148880059
  N        13.7630430261       -0.6592171284       -6.1839881477
  O        12.8297990025       -2.3917018505       -4.8229166247
  S        15.0459075099        1.3911994645       -7.3729160498
  C        14.0394345061       -1.5327406181       -7.2614118205
  H        14.2783819680       -2.5468027623       -6.9564965702
  H        14.8481594173       -1.1411828502       -7.9298273019
  C        12.8692532493       -1.4627823545       -8.1900000945
  H        11.9491661937       -1.7844459156       -7.7671814918
  H        13.0628598318       -2.2711953452       -8.8331649812
  H        12.7369894987       -0.4914928335       -8.6905629237
  H        -1.5203857880       14.8628272707       16.9403512861
  C        -2.5180748938       14.6740386537       16.5676042980
  H        -2.8724583808       15.6672504806       16.3336232816
  C        -3.2527766552       14.1215115763       17.7781237810
  C        -2.7254978008       13.6991563391       15.3203388296
  C        -2.6099025502       12.8670119316       18.4151989681
  H        -3.3203982637       14.8819345626       18.6129455331
  H        -4.2973523881       13.8165948567       17.4871997764
  H        -2.2631485335       12.7588017189       15.5070383962
  H        -3.7555845382       13.4898441015       15.1087202421
  H        -2.1908212202       14.0274805497       14.4087056809
  C        -1.6816458748       13.1444340434       19.6148245876
  H        -2.1822133658       12.1849859451       17.6822343536
  H        -3.5667793515       12.3696607332       18.6373715115
  C        -2.4654510545       13.1247230015       20.9442282214
  H        -0.8715948883       12.4563887628       19.6817719306
  H        -1.2682240568       14.1654213274       19.5928379915
  C        -1.5125251295       12.5737872281       22.0600667449
  H        -3.2172552308       12.3671684657       20.8655689730
  H        -2.9926447246       14.0583123687       21.2337733753
  C        -0.2653179297       13.4601020005       22.2828115048
  H        -2.0983721658       12.5119936478       23.0053253647
  H        -1.3038113992       11.5180945202       21.7195406563
  C         0.9472004092       12.8544717129       22.9944054274
  H         0.0120778902       14.0600239740       21.3587669403
  H        -0.5848775362       14.3370607366       22.8969786678
  C         1.3838804194       11.5489642283       22.2853527935
  C         0.5404696213       12.1387853346       24.2250919689
  C         2.1560807643       13.7818103365       23.1912627558
  C         1.1602710127       10.3886041736       23.0876682416
  C         1.9747397537       11.1926041416       21.0520720850
  C         0.6311481956       10.7840750953       24.3182145522
  C         0.1871902882       12.7527804425       25.3924877912
  H         2.3361064324       14.3515539394       22.2875426393
  H         1.9131699720       14.5408768587       23.9264173714
  C         3.3167067231       12.9141195516       23.6400499758
  S         1.7001378439        8.9441890589       22.3732191832
  C         2.1978008642        9.8168857359       20.9942573532
  H         2.2264637344       11.9415521314       20.3118707347
  C         0.2792681463       10.1683112921       25.5127175198
  H         0.1977856626       13.8002036277       25.2526191314
  C        -0.1129724816       12.1324891106       26.5847457443
  H         3.7184730400       12.4286444062       22.7732869963
  H         3.0348751605       12.1662198403       24.4292825125
  C         4.5269555496       13.7870516322       24.1936746056
  C         2.6670140774        9.0894273979       19.7683829715
  C        -0.0491152549       10.8153500539       26.7155478223
  H         0.1993858695        9.0896272116       25.5571621529
  C        -0.4258621845       12.5780451752       27.8730943403
  H         5.3391206074       13.1952827915       24.5101529533
  H         4.1404388439       14.3441141976       25.0470904065
  C         5.1453115040       14.6445263246       23.0512399538
  C         2.5546092182        7.7512805211       19.3779561127
  C         3.0760663123        9.9830767531       18.6400227420
  C        -0.4548103563       10.1322992466       28.0058837572
  C        -0.6212502877       11.4771508187       28.7024994859
  S        -0.6298592833       14.1062250832       28.6612936256
  H         5.7497001224       15.3956184827       23.5268361584
  H         4.2985868392       15.0261474887       22.5912127283
  C         6.0003101585       13.9744797185       22.0272574879
  N         2.0671333232        6.7869497277       20.3461740301
  C         2.8027067333        7.2307602843       18.1180075702
  C         3.3339665628        9.3840423731       17.3823238194
  H         3.2758511579       11.0355213423       18.7640609271
  C         0.6619807282        9.2863465467       28.7051277147
  C        -1.7322480838        9.3376648486       27.7907139935
  C        -0.8996029161       11.9202058899       30.0028515536
  C        -0.9942117385       13.2707650642       30.1100655963
  H         6.9390369370       14.4840386667       21.8929783316
  H         6.1318301434       12.9531612582       22.4056751406
  C         5.2932053837       13.9471949197       20.5717493722
  S         2.0900821468        5.3599307845       19.5684681201
  N         2.5076339837        5.9265642050       18.0547942028
  C         3.1091557087        7.9445631324       16.9656480168
  H         3.8048753002       10.0449915317       16.6208829109
  H         1.1935911174        8.6661343837       27.9973730740
  H         0.1736888421        8.6871808901       29.4576225708
  C         1.8075144515        9.9963658850       29.4905084799
  H        -1.3985098047        8.5699049313       27.0457899735
  H        -2.0355835036        8.7719824981       28.6870955222
  C        -2.9407999735       10.1203078763       27.2535446466
  H        -1.1764323330       11.1642735869       30.6317486117
  C        -1.3011304634       13.9485644828       31.4746495180
  H         5.4419812843       14.8908602759       20.1025875665
  H         4.2633766502       13.7579489097       20.6261342962
  C         5.9170076133       12.8193095044       19.7075171424
  C         3.2832965773        7.3113467741       15.7160803634
  H         2.1752782075       10.9385461136       28.9788744423
  H         1.4918422686       10.2989198541       30.4984576189
  C         2.9831305258        9.1728590657       29.8080072413
  H        -2.6884828540       10.4943461390       26.2891187995
  H        -3.1633023227       10.9307425439       27.9131173913
  C        -4.1468959004        9.2154056035       27.1523552562
  C        -1.4175507427       15.3591672234       31.7234940653
  C        -1.5480063412       13.1490511468       32.6760033435
  H         5.8789868371       11.8813109584       20.1871078254
  H         5.2100919756       12.7731742149       18.8247105246
  C         7.2641529064       13.1586417581       19.0925249736
  H         3.1728108302        6.2428896137       15.6395076950
  C         3.5559948105        7.7644037813       14.4456333848
  H         3.4112134074        8.7858090221       28.8812766755
  H         2.5489023153        8.3796971863       30.4196150777
  C         4.0818982290        9.9019164255       30.5598210200
  H        -3.9763411117        8.3919447610       26.4972259194
  H        -4.3043508878        8.8623461934       28.1127812868
  C        -5.3496439959       10.0005704204       26.6855689545
  N        -1.2261615653       16.2850152677       30.7272340228
  C        -1.9160488874       15.9348062784       32.8810104289
  C        -1.8351080085       13.7250696740       33.9214983984
  H        -1.5335687873       12.0443425633       32.5728902239
  H         7.3157966065       14.1714039234       18.6817423337
  H         8.2267783280       12.8958955952       19.6900243228
  H         7.1706365764       12.5014575887       18.1529015057
  S         3.7227725764        9.4396090073       14.0448683816
  C         3.8081111904        6.7704453094       13.3581975643
  H         4.3200255646       10.8718067957       30.1078954314
  H         3.7209819668       10.2019356090       31.5198374192
  C         5.4549654002        9.1790189486       30.5831317611
  H        -5.5076157008       10.9616617364       27.2426508093
  H        -6.2248478563        9.4199097501       26.9799494384
  C        -5.2251105131       10.4373481449       25.2213671593
  S        -1.4739447776       17.8205067267       31.3626889510
  N        -1.9140056997       17.3079297402       32.8862733302
  C        -2.1265213145       15.1728095033       34.0272088750
  H        -2.0180624566       13.1155452018       34.7764065268
  C         4.2260928771        8.8598463876       12.4583922381
  N         4.1515498909        7.5269716050       12.2669638920
  O         3.5547227317        5.5384061634       13.3922431000
  H         6.1554098789        9.8580554812       31.0971114276
  H         5.7889398803        9.1404224061       29.5628789637
  C         5.4672642761        7.7573387905       31.1619523698
  H        -4.3705443472       10.9926523545       25.1573465954
  H        -5.0736984430        9.5253561196       24.6060525356
  C        -6.4107540299       11.2438289759       24.8181741052
  C        -2.5390472925       15.8026839313       35.2334083481
  S         4.6135349916        9.9772391577       11.1088752824
  C         4.1779418627        6.8512064611       10.9999556642
  H         5.1217467670        7.8000903828       32.1721126615
  H         4.7624175262        7.0502136621       30.6652687160
  C         6.9046412872        7.1823600203       30.9219278149
  H        -6.2051714430       11.5998886413       23.7348774001
  H        -6.4353282793       12.1431582483       25.2970967492
  C        -7.7795775743       10.5685021660       24.7498070675
  H        -2.1664270580       16.8152712268       35.3326014779
  C        -3.2573755234       15.3240933643       36.2830382568
  H         4.6481539884        7.4298389851       10.1326515241
  H         4.8018594398        5.9542578884       11.1690474157
  C         2.7807519319        6.4682342399       10.4699550438
  H         7.0557919377        6.4544083044       31.6776869592
  H         7.6423851940        7.9820423330       31.0754079414
  C         7.1261708485        6.7202087714       29.4589903540
  H        -8.4211805290       10.7777430211       23.8900752704
  H        -7.6023324402        9.4817555789       24.6542443622
  C        -8.6676000521       10.6799855756       26.0244268210
  S        -3.9902117202       13.8165255667       36.3650074013
  C        -3.4168001354       16.2335987544       37.4691245444
  H         2.0174441114        6.1591245046       11.1725336458
  H         2.4397984617        7.2741303126        9.9059704730
  H         2.9102420346        5.5720868271        9.8683759523
  H         6.3154670528        6.4139703525       28.7954200884
  H         7.8089164800        5.8551946881       29.4390389978
  H         7.4993665940        7.5671489166       28.8870538860
  H        -9.4704506628        9.9310763434       25.8940539384
  H        -9.0685433236       11.7042037768       26.1820777967
  H        -8.1621394771       10.2505539357       26.9389102371
  C        -4.3446142109       14.3298328925       38.0586188905
  N        -4.1208209382       15.6122700052       38.3817384499
  O        -2.9696694167       17.3736210239       37.6076888178
  S        -5.0296621795       13.2523947853       39.2408459918
  C        -4.2199872938       16.1160159338       39.6971155623
  H        -4.2861892852       17.1906385461       39.6838233479
  H        -5.1471840355       15.7874170889       40.1635292045
  C        -3.1057792801       15.7069221867       40.6637885951
  H        -3.2197159756       16.2612923050       41.6228162864
  H        -3.0963115114       14.6616685375       40.9380413309
  H        -2.1381812241       15.8850401963       40.1567459543
