352
i=
  H         4.5926087336        1.2076618886       12.1608462345
  C         3.9691239210        2.0374404071       12.4348080471
  H         4.6274034766        2.8834367836       12.6449346359
  C         3.0618263994        2.4452507696       11.3202367219
  C         3.1056498978        1.6898648088       13.7136113253
  C         3.8573467412        2.6782958608        9.9505055515
  H         2.5776274572        3.3802053345       11.5610468900
  H         2.2821858534        1.6802297099       11.1960574460
  H         3.0913719796        2.5922878748       14.3832172384
  H         3.4278749512        0.7903380687       14.2724584483
  H         2.0746268164        1.5459295997       13.4726424390
  C         4.4836463969        1.4248483527        9.3425506249
  H         3.0678340343        3.0697558073        9.2435250589
  H         4.5413033433        3.4600220815       10.1293031798
  C         5.2124461014        1.6510870931        8.0015494726
  H         3.8033171234        0.6491007833        9.2851916558
  H         5.2867982996        1.0422247467        9.9422018140
  C         6.5444042733        2.4105723049        8.2450711659
  H         4.5804778677        2.0966145255        7.2325915825
  H         5.3676216075        0.6171376405        7.6346865431
  C         7.7950659422        1.6344799039        8.8366519058
  H         6.6924813580        2.8917579664        7.2654990685
  H         6.2666125614        3.1438127984        8.9816604930
  C         8.8963307959        2.6298710039        9.0389348315
  H         8.0195344278        0.8208562741        8.1124988708
  H         7.5306312379        1.1774618103        9.8253270824
  C         8.6193747469        3.9535848370        9.7914605626
  C         9.2589427468        3.4084287942        7.7407812994
  C        10.1070871828        1.9407023940        9.7582794614
  C         8.7785757877        5.0973049764        8.9690111455
  C         8.2401891771        4.3962130382       11.1101215605
  C         9.2065137362        4.7374603112        7.6856891045
  C         9.7524094593        2.8427216190        6.5937846784
  H         9.9330363616        1.2470363214       10.5199770115
  H        10.4722650932        1.3227113111        8.8921107601
  C        11.2422713679        2.9527657358       10.2135952585
  S         8.5304229362        6.6076889258        9.7665852434
  C         8.1365640186        5.7700486806       11.2406397091
  H         8.0193338453        3.6491893101       11.8307202146
  C         9.5058520506        5.4197994211        6.5362230748
  H         9.9357270341        1.8043825517        6.6726157812
  C        10.0918614679        3.4841736302        5.4397649640
  H        10.8089357287        3.8034185675       10.7298409805
  H        11.7122506855        3.4681770298        9.3426712335
  C        12.3489890066        2.3197307281       10.9583665205
  C         7.6986576979        6.5173125311       12.5112313745
  C        10.0761274270        4.8420577824        5.3499335486
  H         9.3207098958        6.4975620239        6.5503057159
  C        10.7030115374        3.1098987383        4.2840995422
  H        13.1927939729        2.9805076876       10.8695733982
  H        12.7554736921        1.4489987394       10.5030398436
  C        11.9660605039        2.0430765874       12.4407399967
  C         7.7025565110        7.9025217993       12.7052545265
  C         7.2687587374        5.7534193269       13.6840512691
  C        10.5299689351        5.5541874513        4.1393104680
  C        10.8364466813        4.2299429703        3.4791081182
  S        11.0589885170        1.5777848466        3.5537152730
  H        11.1994183607        2.7853076594       12.6693518443
  H        11.5014595264        1.0645262949       12.4373566667
  C        13.1443443171        2.1239122645       13.3819704666
  N         8.0615710231        8.8249494183       11.6519779179
  C         7.3408681300        8.5685885828       13.8726476804
  C         6.8732258533        6.4160632719       14.8996071171
  H         7.1819759136        4.6765860499       13.5451980987
  C        11.7845690220        6.3957195856        4.4877292999
  C         9.4134991764        6.3749043963        3.4836233131
  C        11.2908599667        3.8319408925        2.1990632765
  C        11.3235709295        2.4612156786        2.0587375704
  H        13.5003168521        3.1764472657       13.5264323596
  H        13.9253010779        1.4433283831       12.9782583663
  C        12.7214787211        1.3490613948       14.6403301271
  S         8.0635608005       10.3283970102       12.3567078300
  N         7.4909265881        9.9419349910       13.8229955716
  C         6.9371958486        7.8923148165       15.0305800199
  H         6.7218042052        5.8912925856       15.8556515174
  H        11.4629518079        7.1252822089        5.2208897149
  H        12.0306621994        6.9820617311        3.6097453157
  C        13.0008816819        5.6673174959        5.0016814562
  H         9.1089246539        7.2219325468        4.0038010907
  H         9.7398834707        6.7566848709        2.4940628118
  C         8.1490917920        5.5956742478        3.1831353816
  H        11.4085866327        4.6773431538        1.4955384464
  C        11.7137601446        1.6118431590        0.8198311885
  H        11.6419785111        1.5605676846       14.8646326766
  H        12.9284281156        0.2814888981       14.6472569546
  C        13.5247145553        1.8150109839       15.8659998250
  C         6.7875278747        8.5256494510       16.2449270197
  H        12.6623996999        5.1957326341        5.9138402121
  H        13.2162252273        4.8410610455        4.3099974486
  C        14.1675398164        6.5527925114        5.4126917654
  H         7.7880752388        5.0839507688        4.0487100975
  H         8.2918751016        4.7272463170        2.5462237295
  C         7.1013648153        6.4948300117        2.5782474637
  C        11.6937436695        0.2253982766        0.6154573702
  C        11.8515586792        2.3443216134       -0.4474664273
  H        14.2642359916        2.6321643471       15.6095881846
  H        14.0757578461        0.9807749223       16.2696298135
  C        12.7641000736        2.4011279359       17.1063875332
  H         7.0145252337        9.6443329601       16.1888730449
  C         6.4406530426        8.1617151311       17.5325376874
  H        13.7084129428        7.1940835139        6.1291417462
  H        14.4085994038        7.1702009163        4.5845280826
  C        15.4180609984        5.7712168243        5.8130036411
  H         7.0652940391        7.4042487347        3.2133963035
  H         7.1890796607        6.7043890059        1.5124405173
  C         5.7501334293        5.8168793797        2.8687924534
  N        11.4453014033       -0.5818256636        1.6372951728
  C        12.0933882193       -0.4264857853       -0.5732052432
  C        12.1515875163        1.7012767677       -1.6964151448
  H        11.6079144619        3.3446722339       -0.3806651276
  H        13.3491199688        2.2552927629       18.0408658963
  H        11.6666871464        2.3131518966       17.1131044313
  H        12.9714925332        3.5632580283       16.9606094497
  S         6.1647763761        6.5517358903       18.1949033441
  C         6.3739579254        9.2335573117       18.6414836996
  H        15.0720610171        4.8408811374        6.3659633013
  H        15.9601227598        5.4363800215        4.9452798721
  C        16.2717352301        6.5414256873        6.7476268246
  H         5.5733733583        5.6883916012        3.9336762382
  H         5.7673362981        4.7918233312        2.4887832626
  C         4.6403895328        6.6071804698        2.3302441852
  S        11.5680807839       -2.0738301596        1.1563730921
  N        12.1451102595       -1.8315860567       -0.3686756399
  C        12.4189422095        0.2324686105       -1.7744713566
  H        12.2557517412        2.2489648936       -2.6612583457
  C         5.8691440185        7.3719076996       19.8144346244
  N         6.0702390678        8.7098126116       19.8491470094
  O         6.4771403484       10.4550855123       18.3959159698
  H        16.7348358581        7.4074729713        6.2336875957
  H        15.5967524363        7.0673774973        7.3734918824
  C        17.3334042487        5.6702628341        7.3150782728
  H         4.7522805466        6.6658130960        1.2250553558
  H         3.7289176026        6.0547941633        2.3025073470
  C         4.3774055710        7.9748263623        3.0867103704
  C        12.7969753842       -0.5551560157       -2.8705690183
  S         5.5093859014        6.5341962909       21.2801407177
  C         6.1294758696        9.5493644381       21.0251024464
  H        17.0372257258        5.2338675074        8.2600708696
  H        17.2396659171        4.7225952235        6.7418320652
  C        18.7798278181        6.1241830549        7.2421355525
  H         5.3206915268        8.5138312593        3.1761306191
  H         4.1405106933        7.6673946603        4.0978801361
  C         3.2958699937        8.7971712053        2.2974230443
  H        12.5970632078       -1.6648407844       -2.7493722686
  C        13.2832084661       -0.1451334754       -4.1129302467
  H         5.3762266147        9.1579961608       21.7348218593
  H         5.6668419233       10.5720810990       20.9930763943
  C         7.5634066959        9.5288949826       21.6068916725
  H        19.2321621136        5.7039976331        8.1505514959
  H        18.9437004063        7.1924840281        7.4928507613
  C        19.5275223951        5.7210856660        5.9828153472
  H         2.4584349431        8.0911790997        2.1532435227
  H         2.8279935730        9.5144911299        3.0204850696
  C         3.5947389363        9.4788704143        1.0449323761
  S        13.8474320277        1.3910561135       -4.6158014851
  C        13.4326685379       -1.1528429067       -5.1884203335
  H         7.6909435631       10.1974085266       22.4330801180
  H         8.3183256625        9.8782852522       20.9793878735
  H         7.8141070745        8.5459504641       22.0091991041
  H        19.5387531358        4.6079341264        5.8341350154
  H        19.0585800280        6.0718293157        5.0707928864
  H        20.5576635594        6.0893659065        6.0222775301
  H         3.5080676541        8.7336491071        0.2101288526
  H         2.9567034467       10.3233271733        0.8314492008
  H         4.6707400663        9.7670256062        1.0041955888
  C        14.2200115920        0.6986693671       -6.1588656444
  N        13.9875642192       -0.5861507354       -6.2630507134
  O        12.9468347003       -2.2619806429       -5.1944496784
  S        14.5658072720        1.6725549098       -7.5867418698
  C        14.1575796574       -1.3062948847       -7.4637190350
  H        14.4027717157       -2.3665451964       -7.1654891515
  H        14.9556552108       -0.9060113959       -8.0042717232
  C        12.9081361288       -1.3428509710       -8.3805591035
  H        12.9498116904       -1.9763706295       -9.2585155077
  H        12.6283535487       -0.3224282844       -8.6514059964
  H        12.0089684130       -1.6326961738       -7.9152429962
  H        -2.9399471087       15.1213427357       15.9822837776
  C        -3.2408484982       14.1107992097       16.2303689345
  H        -4.3155285576       14.1276839876       16.4784290823
  C        -2.3428399336       13.6659874397       17.4148033393
  C        -3.1211937970       13.2330296887       14.9972232417
  C        -3.0264303718       13.7875132797       18.7834589023
  H        -2.0097720372       12.6273058338       17.3579443191
  H        -1.5170230935       14.3937092706       17.5088283429
  H        -3.8351649792       13.4129091509       14.1864986463
  H        -2.0977492593       13.4239802066       14.6806907586
  H        -3.2653460558       12.1619634040       15.3465822193
  C        -2.0032493990       13.6945280711       19.8821611967
  H        -3.7918370121       13.0589979558       18.9002886348
  H        -3.5871493530       14.6815144228       18.8283822081
  C        -2.5166679387       13.5619630476       21.3837529444
  H        -1.3307298404       12.8513462201       19.6424565874
  H        -1.3952533231       14.6015275868       19.8269718833
  C        -1.4579454125       12.9221668346       22.2221422876
  H        -3.4122001876       12.9275522709       21.4050148020
  H        -2.7823669950       14.5827878901       21.7275231560
  C        -0.2076178980       13.7675796600       22.5013275282
  H        -1.8600839267       12.5597590266       23.2128009221
  H        -1.0878541428       11.9819967948       21.7888703795
  C         1.0641413292       13.1600009012       23.0530412707
  H         0.0559952831       14.2068214028       21.5055662985
  H        -0.4979139498       14.6482708576       23.1000075084
  C         1.5601184062       11.8060524675       22.4910243041
  C         0.8021037796       12.4517274143       24.3994205762
  C         2.2273648133       14.2361966205       23.2473373569
  C         1.3656367146       10.7241579623       23.3223254504
  C         2.0509622194       11.3852504143       21.2044218969
  C         0.8929342355       11.1243995374       24.5376742337
  C         0.3718707977       13.0650587036       25.5735827917
  H         2.5317072339       14.6337741371       22.3212965997
  H         1.8928666980       15.1498881626       23.6947740174
  C         3.4495596753       13.6581576040       23.8939211144
  S         1.8408903223        9.1807290582       22.6583748148
  C         2.2252481618       10.0027463771       21.1591027621
  H         2.2239687279       12.1407568838       20.5025659459
  C         0.4920936054       10.5265651257       25.7196017416
  H         0.0989926951       14.0641415123       25.5917888077
  C        -0.0191126781       12.4352967899       26.8021979753
  H         3.8667155041       12.8602179664       23.2624589760
  H         3.2108525000       13.2069746612       24.8782857709
  C         4.5900245565       14.6609992610       24.0871480726
  C         2.6509535634        9.2836009526       19.9011117448
  C         0.0765423257       11.0832371406       26.9122451727
  H         0.7872417382        9.4944818403       25.8026382052
  C        -0.4283087239       12.8255036681       28.0572011298
  H         5.4445060977       14.3332945256       24.7486227836
  H         4.0945837414       15.3624280301       24.6852834859
  C         5.1611353959       15.1978680577       22.7789069033
  C         2.5156157165        7.8930387076       19.7116281058
  C         2.9884914663        9.9652721064       18.5995303145
  C        -0.3292856241       10.3855558546       28.1663066614
  C        -0.6575487798       11.7062787418       28.8779629010
  S        -0.7492578873       14.2990421185       28.8839525771
  H         5.9025798977       15.9549403762       23.1122808137
  H         4.5143842873       15.6266895920       22.0268675941
  C         6.0449064209       14.1894232559       22.1733341812
  N         2.2580296916        6.9644276771       20.7257643265
  C         2.8107536650        7.2609474261       18.5346059517
  C         2.9882594476        9.3291301341       17.3467673039
  H         3.0059092257       11.0243871100       18.6697008653
  C         0.8095865271        9.7127024919       28.9468651050
  C        -1.5600737558        9.4723268103       27.9606770885
  C        -1.0479443057       12.0805644288       30.1407324477
  C        -1.1698649949       13.4423950864       30.3004165887
  H         6.9795669487       14.6114020327       22.0607635675
  H         6.2749989434       13.3606834951       22.8754931513
  C         5.4964376589       13.6466461587       20.8426382940
  S         2.4608168968        5.4428034319       20.1437268538
  N         2.7142841699        5.8537913414       18.6291835743
  C         3.0371721447        7.9086760850       17.2872315968
  H         3.0180892569        9.9342383483       16.4363488246
  H         1.2365326796        9.0484326307       28.2219229091
  H         0.2978703008        9.0680942997       29.6296412977
  C         1.8672425031       10.5160553901       29.7173630279
  H        -1.4976978843        8.8757847236       27.0112715355
  H        -1.6142724522        8.7121531704       28.7605378651
  C        -2.8844447967       10.1689490049       27.8166442501
  H        -1.0100460263       11.3418366867       30.8812346782
  C        -1.5565399180       14.1391051832       31.5946476262
  H         4.4362757897       13.8809997453       20.8163012350
  H         5.4198989921       12.5177313392       20.7813607507
  C         6.3561464315       14.0594656700       19.5894975985
  C         3.2320654555        7.1416654007       16.1041752686
  H         2.2302695364       11.3602761134       29.2227309734
  H         1.3243042999       10.8211825638       30.6208663856
  C         3.0122913246        9.7176967252       30.2982541303
  H        -2.7059837801       10.8751351510       27.0359468162
  H        -3.0888621010       10.7543621242       28.6730836378
  C        -4.0082448059        9.2191646031       27.3596150120
  C        -1.5399793402       15.5115588830       31.8910113738
  C        -1.8773532012       13.2999254126       32.7186822908
  H         5.7542736358       13.8206122267       18.7027895890
  H         6.4193186374       15.1691092383       19.5807456665
  C         7.7217111291       13.4238506823       19.5757091679
  H         2.9012763331        6.1231948239       16.1554507387
  C         3.5689746094        7.4654287010       14.7952704464
  H         3.4669503781        8.9263474046       29.6551889239
  H         2.6828206261        9.2272256105       31.2846169341
  C         4.1584068005       10.6953928527       30.6631372966
  H        -3.7522900947        8.8734461742       26.3212966799
  H        -4.2210534120        8.3154155884       28.0109599022
  C        -5.3151238824       10.0221452457       27.2174884752
  N        -1.1529631544       16.5159421469       31.0139398433
  C        -1.9396819370       16.0428098449       33.1269495429
  C        -2.0934848799       13.7985003750       33.9463665201
  H        -1.8847523880       12.2157079273       32.6492765794
  H         7.8131190445       12.3491289947       19.6292465282
  H         8.1735627281       13.5966470845       18.5787635201
  H         8.3566392597       13.8495319186       20.3949376105
  S         3.9459352072        9.0384345289       14.2547547227
  C         3.6630062709        6.4272675080       13.7685066374
  H         4.1644210622       11.3649655903       29.8717292393
  H         3.8820308570       11.2483214854       31.6137525027
  C         5.5830913615       10.1598959101       30.7014461224
  H        -5.1260273917       10.9336665764       26.6967802010
  H        -5.8649625610       10.1643616591       28.1272561503
  C        -6.4467204275        9.3721610951       26.4073924808
  S        -1.2433246565       17.9368424476       31.7778181170
  N        -1.9265154013       17.4005568283       33.1433284995
  C        -2.2401839800       15.2226656760       34.2186506669
  H        -2.2631616538       13.0503453072       34.7349851178
  C         4.0222611527        8.3594537692       12.6717998897
  N         3.9982537665        7.0002027992       12.6092813457
  O         3.3530845618        5.2595299924       14.0192930297
  H         6.2180697854       11.0011182094       31.0911847966
  H         5.7871235349        9.8929350305       29.6774332310
  C         5.7495355842        8.8171897025       31.4239773045
  H        -5.9606477691        8.4958825300       25.8446685286
  H        -7.1389924105        8.9732431031       27.1590436350
  C        -7.1581764567       10.2927303848       25.4342247875
  C        -2.6711931265       15.8037005564       35.4539250891
  S         4.6063216922        9.2234631572       11.2849603886
  C         4.1065633766        6.2589872213       11.3692646848
  H         6.6035017831        9.0063346135       32.0466199296
  H         4.8224107363        8.6738833303       31.9739507584
  C         6.0872750129        7.5766394515       30.6698670260
  H        -6.4285804671       10.5728644120       24.7397327207
  H        -7.2428396631       11.2266479286       25.9708711929
  C        -8.4466134091        9.6947580441       24.8602071059
  H        -2.5647433870       16.8807853898       35.4064723933
  C        -3.3054709754       15.3450937974       36.5399229792
  H         4.9251810076        6.6039794017       10.7340243227
  H         4.4340834903        5.2654574652       11.5654094812
  C         2.7582466301        6.2211551538       10.5848692032
  H         7.1536992426        7.7546868439       30.2723514574
  H         5.4311310305        7.5519714599       29.8133472136
  C         6.0912408641        6.3237394886       31.5337834337
  H        -8.6994079579       10.1745625851       23.9311609467
  H        -8.1562621010        8.7175745968       24.6330947366
  C        -9.6055432418        9.6412421439       25.8667198409
  S        -3.9657217817       13.8218080772       36.7874615800
  C        -3.5412778782       16.3337640154       37.5693931197
  H         2.9140741592        6.7283888063        9.6065140303
  H         2.5165915654        5.2081879473       10.3682412965
  H         1.9072999157        6.7136909544       10.9543055374
  H         6.7314073572        6.5969522482       32.3765682127
  H         6.4857457843        5.4143112281       31.0474005526
  H         5.0633354189        6.1397610384       31.8775424211
  H        -9.6499348095        8.7876923195       26.4974930356
  H       -10.5306434728        9.4819281528       25.3508082400
  H        -9.7059791100       10.5094022625       26.4949053610
  C        -4.5842554992       14.4968698884       38.3092760378
  N        -4.3191222578       15.7899746937       38.4949317897
  O        -3.0759985878       17.4595496714       37.4925647212
  S        -5.2005922866       13.6549962133       39.7277905652
  C        -4.7323004353       16.5412708535       39.6625282530
  H        -5.0042774920       17.4980022717       39.2671467476
  H        -5.6877615273       16.2345925697       40.0285221331
  C        -3.6813545890       16.5179962068       40.7809267343
  H        -2.8571755003       15.8087328786       40.5217870897
  H        -3.3933062572       17.5612835897       40.9727230907
  H        -4.1268484402       16.2435004479       41.6961413592
