352
i=
  H         5.0977101196        1.2120725503       12.9449714071
  C         4.5540531564        2.1302774506       13.0005369173
  H         5.2581773011        2.9792397439       12.9287648674
  C         3.6105850182        2.1876705430       11.7826425723
  C         3.9094879467        1.9916320499       14.3669715061
  C         4.4557444717        2.2813681745       10.4752801969
  H         3.1438752233        3.1858658966       11.9159682278
  H         3.0164984175        1.2817333308       11.8321568129
  H         2.9366132843        2.4185457106       14.2254225388
  H         4.5305732340        2.5055458349       15.0947056053
  H         3.7785946366        0.9669974203       14.5592275328
  C         4.8805345936        0.9341286352        9.9266936753
  H         3.8823804353        2.8503025959        9.6871484967
  H         5.2710398433        2.9018245885       10.7536973538
  C         5.4246486784        1.0279094743        8.5011380844
  H         3.9965107921        0.3012776394        9.8223717404
  H         5.6361829878        0.3899399025       10.5684953782
  C         6.5234176377        2.0662099092        8.3035809340
  H         4.6029988749        1.1929356726        7.8478885654
  H         5.6747987288        0.0572187090        8.0912580225
  C         7.7178481861        1.6506093942        9.1239007027
  H         6.8261145089        2.1677273699        7.2806834011
  H         6.1549178102        2.9794266172        8.5935959905
  C         8.9019060968        2.6434190560        9.1776122936
  H         8.0385712529        0.6125016730        9.0073020157
  H         7.4742056334        1.6458754087       10.1118820787
  C         8.5007163937        3.9361936447        9.8448851925
  C         9.2645538336        3.3626814362        7.8772090251
  C        10.0570038909        1.9653478885        9.9019634221
  C         8.6056529221        5.0494679738        9.0415530362
  C         7.9929032788        4.3655481914       11.0972343455
  C         9.1634389004        4.7156712268        7.8291845504
  C         9.7361286613        2.7218475347        6.7105889243
  H         9.7598526670        1.6769382298       10.9298567603
  H        10.2839762742        1.0776439751        9.2812744964
  C        11.4025933032        2.8691295085       10.0499526123
  S         7.9921184370        6.5200232180        9.6346191285
  C         7.6985689922        5.6984755671       11.1430315691
  H         7.9232852570        3.7016899770       11.9196358379
  C         9.6189660198        5.3162467076        6.7115075852
  H         9.9594852181        1.6531363771        6.8030387391
  C        10.1811800431        3.3701180623        5.5903812837
  H        11.0801924340        3.9002398010       10.2695400904
  H        11.8842401969        2.9199881182        9.0586013663
  C        12.3927206935        2.6096229589       11.1934963153
  C         7.3258835470        6.3443915067       12.4626331152
  C        10.0722517420        4.7397739183        5.5223903630
  H         9.5846389067        6.3993187154        6.6930769246
  C        10.6371376645        2.9785781086        4.3707450434
  H        13.3404273776        3.2016292589       11.0394463679
  H        12.7631618176        1.6147179175       11.1278686028
  C        11.8368239951        2.8233914998       12.6579230984
  C         7.4291049160        7.7631699195       12.6738387137
  C         7.0469529454        5.5940545101       13.7058333699
  C        10.4829354366        5.3348088043        4.2685898788
  C        10.8183388401        4.1011277657        3.5428165590
  S        10.8988521704        1.5003847500        3.5749863771
  H        12.2415627158        3.8413324039       12.8759304669
  H        10.7582665815        3.0571817499       12.6444903050
  C        12.0220043840        1.9031801435       13.8099863731
  N         7.9589812392        8.6419844092       11.7249055712
  C         7.1605603484        8.3837311565       13.9246862839
  C         6.8070470280        6.2684777610       14.8871642215
  H         6.9930140458        4.4504423101       13.6006481913
  C        11.6578586408        6.3057664214        4.2774182366
  C         9.3801266683        5.9400313905        3.3986915158
  C        11.1197692038        3.7521698150        2.2029213244
  C        11.1754929914        2.3700361740        2.0791865106
  H        12.7402892549        1.1000965399       13.5339013072
  H        11.1863500712        1.1837771707       14.0923382894
  C        12.6607414736        2.5978506117       15.0363147953
  S         7.8512876127       10.1456656295       12.3565387177
  N         7.3563026145        9.7928363471       13.8163248926
  C         6.8405214397        7.7296961220       15.1278812880
  H         6.4354466833        5.5974927670       15.6420118789
  H        11.3418427550        7.1841336231        4.7752445466
  H        11.7523558744        6.5445168196        3.2218412343
  C        12.9476328263        5.6905754783        4.8917261349
  H         9.1228203984        6.9228416857        3.7043011986
  H         9.6290935155        5.9595314411        2.3461432357
  C         8.0267090681        5.1083617614        3.5385351359
  H        11.1551038951        4.5163689992        1.4424311997
  C        11.4672966152        1.5876761280        0.8536365131
  H        13.6690870909        3.0560738101       14.7038083951
  H        11.9376591097        3.4076475760       15.3466209004
  C        12.9355674218        1.7066387777       16.2722386830
  C         6.6613280875        8.3925016409       16.3559608803
  H        12.7915644825        5.2677739047        5.8879608276
  H        13.2213179493        4.8647082455        4.2822866329
  C        14.1414088704        6.5517126513        4.9913953529
  H         7.8031737585        4.9733935978        4.6034409664
  H         8.1050393294        4.1183351160        3.0400243413
  C         6.8317858478        5.9626058883        2.9335582362
  C        11.5856357104        0.1581599691        0.7237106949
  C        11.6867571167        2.3653654478       -0.3758755403
  H        13.9795996568        1.3622166839       16.1924439134
  H        12.2234127578        0.8395729350       16.1419568388
  C        12.7614626406        2.3842033434       17.6884081239
  H         6.9584625169        9.4599768054       16.2254402971
  C         6.4402419194        7.9832411146       17.7123459689
  H        13.9801847078        7.1266013580        5.9559974572
  H        14.1138381246        7.2967700898        4.2089165138
  C        15.4380042441        5.8288362538        5.0721923444
  H         6.7248420151        6.8338723293        3.6481490961
  H         7.2291669426        6.3511222182        1.9807337018
  C         5.5299781583        5.2313400111        2.6860715657
  N        11.5174846982       -0.7807128032        1.7857791482
  C        11.8848786700       -0.3725218928       -0.5397348941
  C        11.8805639667        1.7744915045       -1.6500382704
  H        11.4826700586        3.4184606854       -0.3631186890
  H        11.7542028380        2.2737647114       18.0813415053
  H        13.0070992918        3.3943318036       17.7488316042
  H        13.5522659680        2.0136542327       18.3212129479
  S         6.1120368781        6.3999375876       18.1763894560
  C         6.3242434750        8.9728610615       18.8205918837
  H        15.3884993043        4.9432440234        4.4445584637
  H        16.2213707071        6.4074976404        4.5603536791
  C        15.6915243898        5.1520240896        6.4236244937
  H         5.0963332982        4.9676906232        3.6340395711
  H         5.8165385897        4.3670871572        2.1257260177
  C         4.5863706438        6.1060652227        1.8098804552
  S        11.6255536936       -2.2617068684        1.0051222828
  N        12.0392390892       -1.7833331194       -0.4777191254
  C        12.1041824824        0.3258634745       -1.7490795290
  H        12.0904927801        2.4141143494       -2.5089788775
  C         6.0620237048        7.0689180097       19.8262739855
  N         6.1249373419        8.3937587652       20.0184740802
  O         6.4391916648       10.1763317698       18.6466797452
  H        15.2011450595        5.6772878500        7.2850567023
  H        15.2984560976        4.1458948957        6.3589358550
  C        17.1456979647        4.8985859094        6.7977378005
  H         5.0861682469        6.5172976132        0.9441048391
  H         3.7634177713        5.4618397453        1.5255075793
  C         3.8755870126        7.1948892497        2.6059331764
  C        12.5019082024       -0.4190305926       -2.9007096853
  S         5.5220358126        6.1348852848       21.3137687882
  C         6.1037312915        9.1757114884       21.2655512564
  H        17.1906155003        4.4678060814        7.8578750489
  H        17.5462756261        4.1715000553        6.0313249038
  C        18.0600072301        6.1222258741        6.8381608960
  H         3.9420227682        6.9644983382        3.6409068930
  H         2.8419064751        7.1460654356        2.2406089086
  C         4.4617340429        8.5455911813        2.3404002015
  H        12.1865234988       -1.4578174106       -2.8289500400
  C        13.0302715617       -0.1050357112       -4.0970921322
  H         5.5217517876        8.6746249118       21.9989490968
  H         5.5449090797       10.1300582724       21.0990483049
  C         7.5029473034        9.4586722621       21.6587510329
  H        18.0115346941        6.5155473433        7.8376767955
  H        17.7905158235        6.8905141883        6.1449695794
  C        19.5595557352        5.7347778207        6.5822142304
  H         4.6876071119        9.0214796486        3.3124506482
  H         5.3350924265        8.6262191393        1.7283836388
  C         3.3863286859        9.4789452625        1.6001226475
  S        13.5284370898        1.4271638017       -4.5179125686
  C        13.3517817591       -1.1789124915       -5.0412603313
  H         7.8795341132        9.0051871219       22.6030060448
  H         7.6905575902       10.5306846400       21.6365230380
  H         8.1435466546        9.0804380515       20.9006546539
  H        19.7881985337        5.3507679304        5.5742216883
  H        20.3064152196        6.4494446061        6.7519858051
  H        19.7247084836        4.8510032017        7.2007144585
  H         3.8479880244       10.3915584358        1.2343519238
  H         2.9144035988        8.9798336608        0.7464938945
  H         2.6360594846        9.8778380062        2.2943275335
  C        13.9684931206        0.7035507580       -6.0421136094
  N        13.9506948825       -0.6382950975       -6.0989168230
  O        12.8963295218       -2.3017753437       -4.9032115929
  S        14.6943638776        1.6187525795       -7.3581052070
  C        14.2003582065       -1.4970277041       -7.2460041641
  H        14.4528774411       -2.5244081399       -6.9128537695
  H        15.0349026609       -1.1117386656       -7.8114679831
  C        12.8836945340       -1.4768476228       -8.0131042871
  H        12.1170994706       -0.9191396425       -7.5163463331
  H        12.5001921312       -2.4840346586       -8.2648937323
  H        13.0373307684       -1.0339384154       -8.9890094551
  H        -1.9647747538       14.6959950986       15.8317312737
  C        -2.3533124730       14.2159981068       16.7575950485
  H        -2.8516914206       15.0259521136       17.2783394488
  C        -1.1275603107       13.6538229321       17.4919505077
  C        -3.4073178319       13.1696965430       16.4429349224
  C        -0.9736194831       13.8703207830       19.0247801116
  H        -0.9009588813       12.5728579497       17.1801150847
  H        -0.2221868776       14.1683124934       17.1177932305
  H        -4.1040823732       12.9789032397       17.2488728470
  H        -3.9986902044       13.5037067377       15.5736488810
  H        -2.8633279451       12.2519752517       16.2942141625
  C        -1.7808991519       12.8939997122       19.8843645798
  H        -1.3057186653       14.8847792102       19.2066570629
  H         0.0553972952       13.8531506837       19.3475922969
  C        -2.0435405292       13.3882999881       21.3815449010
  H        -2.7093386362       12.7609170507       19.3960287178
  H        -1.3624153995       11.8462030446       19.8362706607
  C        -1.1509753372       12.7522566546       22.4276933569
  H        -3.0945574536       13.3575950763       21.7185173177
  H        -1.8969899421       14.4984206649       21.3557135247
  C         0.0183015281       13.6629584772       22.8042089787
  H        -1.6920231190       12.5523393018       23.3579756201
  H        -0.8457052963       11.8111394015       22.1018761914
  C         1.2101454546       12.9733368513       23.4837938844
  H         0.4153216460       14.0588258750       21.8895596785
  H        -0.2793579455       14.5496363656       23.3358729841
  C         1.5044231342       11.5763063659       22.7940101856
  C         0.9075852449       12.1894224500       24.7831885661
  C         2.4742710737       13.8892339486       23.6578916430
  C         1.3484025701       10.4897108512       23.5996482172
  C         1.8728071745       11.2479236747       21.4398055779
  C         0.9193850340       10.8429934239       24.8627929431
  C         0.4601100918       12.8461892668       25.9080571767
  H         2.6173279800       14.3863650811       22.7376710757
  H         2.2825311329       14.6310204298       24.4633615628
  C         3.7150358444       13.2486441640       24.1112226427
  S         1.7438562325        9.0888390725       22.7407357204
  C         2.0965032504        9.9487932570       21.2753703783
  H         2.0243197096       12.0805487897       20.7378929775
  C         0.6434218636       10.2088652912       26.0072540974
  H         0.4213232958       13.9039880071       25.9235627471
  C         0.1170405788       12.1848080668       27.0642837740
  H         4.0368288152       12.5884744459       23.2964901511
  H         3.6573475013       12.7490234848       25.0737927083
  C         4.9028876144       14.2293456039       24.2555226006
  C         2.5536774080        9.2598541835       20.0865304117
  C         0.1259327307       10.8018151300       27.1381311031
  H         0.7810865991        9.1796035483       26.0528585507
  C        -0.4258949362       12.5923163839       28.2383427206
  H         5.6148426626       13.6904437519       24.8719863262
  H         4.5164760734       15.0385896457       24.8961246872
  C         5.5032225421       14.9112960241       22.9357312900
  C         2.5234884965        7.8150536233       19.9054783988
  C         3.0067056483        9.9595714776       18.8533560186
  C        -0.3178978418       10.1096180907       28.3687492638
  C        -0.6736038119       11.5137133409       29.0159670291
  S        -0.9589634940       14.1547822154       28.8581430169
  H         6.1273832126       15.7731122761       23.2648592331
  H         4.6464540106       15.3036458848       22.3621627087
  C         6.3117126748       13.9664992913       22.0401799163
  N         2.2762685555        6.8470203682       20.8879891201
  C         2.7241732254        7.2473918241       18.7063250266
  C         3.1620547284        9.3496866448       17.6499011918
  H         3.2709627548       11.0183147243       18.9697774226
  C         0.7755014762        9.3219100456       29.1118099412
  C        -1.5496468416        9.2292814615       28.1431861783
  C        -1.2342205900       11.9398680732       30.2258047784
  C        -1.3489581294       13.3317342245       30.3512072988
  H         7.3207618628       14.2096279858       22.2296532721
  H         6.3372673214       12.9037360102       22.4189513894
  C         5.8770384429       14.0244359919       20.5504491496
  S         2.4263918239        5.3761704377       20.2492159877
  N         2.7143372254        5.8439385841       18.7440865899
  C         3.0371937922        7.9223475016       17.5413749805
  H         3.4879841705       10.0181691600       16.8249973203
  H         1.3257550373        8.5730237234       28.5530602443
  H         0.4490526078        8.7898567778       30.0351067747
  C         1.8208538621       10.3028816065       29.7188363930
  H        -1.4100408502        8.2515269004       27.7461670570
  H        -2.0524321355        9.0649778779       29.1017388916
  C        -2.6832103342       10.0915999675       27.5240289185
  H        -1.7040961142       11.2567303833       30.8208213630
  C        -1.7558315117       14.0712315844       31.5799079121
  H         5.8644838987       15.0872234307       20.1599973150
  H         4.8623312660       13.5647975932       20.4622206507
  C         6.8647998894       13.1749327483       19.6871485743
  C         3.1931748351        7.2918173318       16.3063897956
  H         2.2110671584       10.9617128838       28.9164556460
  H         1.3597439976       10.9477318980       30.4691341514
  C         3.0157902960        9.6151625155       30.4161694738
  H        -2.3633436044       10.5447516492       26.5871894776
  H        -3.0714479983       10.8471411282       28.1516592426
  C        -3.9303903414        9.2885737431       27.1476402854
  C        -1.8336301101       15.4721954825       31.7005214498
  C        -1.8469757073       13.3535229271       32.8873259078
  H         7.4532730880       12.6483573425       20.4367673153
  H         6.3924988498       12.4311966139       19.0664332237
  C         7.7725143437       14.0769349711       18.7626072104
  H         3.1570315953        6.1816674717       16.3027936690
  C         3.4209082455        7.6604667818       14.9655609138
  H         3.3186267855        8.7249663807       29.8198163141
  H         2.6062414137        9.3709983359       31.3634495310
  C         4.2593573375       10.4079579698       30.5299529387
  H        -3.6787823034        8.6923194530       26.3039053235
  H        -4.2926156014        8.7359197293       28.0266414937
  C        -5.0916375886       10.1897615083       26.6826797698
  N        -1.7215357193       16.3808496745       30.5907053470
  C        -2.0382689442       16.1328939368       32.9469510396
  C        -2.0646221639       13.9849439506       34.1256689693
  H        -1.6749780702       12.2627298099       32.9459043090
  H         7.2628049851       14.8632973790       18.3199877093
  H         8.5775033696       14.5590459177       19.3002597022
  H         8.1620583005       13.5146020494       17.9379669328
  S         3.7336376442        9.1859402773       14.3831136854
  C         3.5011416262        6.5718152062       13.9213725208
  H         4.4417971235       10.9728375537       29.6278980399
  H         4.1959028508       11.0137749514       31.5122843426
  C         5.5253565460        9.5877274423       30.6219923394
  H        -4.8882164250       11.0718480329       26.0891982492
  H        -5.4833918192       10.6560340738       27.5555124273
  C        -6.2854407332        9.5384824332       25.8351102069
  S        -1.7512831617       17.8716695257       31.3037420893
  N        -2.0801705067       17.5016761706       32.8064626222
  C        -2.1761589678       15.4683025148       34.2131185675
  H        -2.2178750051       13.4035870992       35.0060357842
  C         4.0772042803        8.3628845098       12.7980739718
  N         3.8660987925        7.0658373428       12.7735683229
  O         3.2295205570        5.4454892185       14.0983370729
  H         6.3912288296       10.2514308706       30.5392251438
  H         5.6012060257        8.9465058409       29.7770100370
  C         5.5018553339        8.7413232000       31.9456586863
  H        -5.8573251070        9.0409452874       24.9784492694
  H        -6.7737164489        8.7440053605       26.4518025247
  C        -7.2395124308       10.6565104525       25.3885391092
  C        -2.5370667492       16.2465082767       35.3989960959
  S         4.5156028875        9.1478280170       11.3125275242
  C         3.7498027439        6.2538469677       11.5647700887
  H         6.1463512090        9.3027343127       32.5689937916
  H         4.5230621956        8.7673567204       32.4767909112
  C         5.9285416674        7.2694065580       31.7717591910
  H        -6.9567880928       11.0229052930       24.4090182549
  H        -7.2212278937       11.4798366468       26.0104576038
  C        -8.6540920632       10.0587463163       25.2116442350
  H        -2.2869978751       17.2938224745       35.2997955124
  C        -2.9209031750       15.8651416843       36.6464938531
  H         4.3323452067        6.6197792670       10.7087891044
  H         4.2423959465        5.2941435358       11.7733373882
  C         2.2738125533        6.2212495048       11.0236771298
  H         6.2073949385        6.8869691103       32.7305696075
  H         6.7632488562        7.1450578009       31.0924453200
  C         4.9109716666        6.2780131356       31.2024071684
  H        -9.1249725637       10.5057448291       24.3314361434
  H        -8.6270163800        8.9798374009       25.0423631201
  C        -9.4949380995       10.3718191177       26.4155809267
  S        -3.5138929938       14.3304490163       37.1059464533
  C        -3.0693060695       16.9418742953       37.6389260813
  H         2.0177484703        5.2926575965       10.5221513228
  H         1.5248565293        6.3651851238       11.7764871936
  H         2.1683312847        7.0561242703       10.2980552149
  H         5.4576561600        5.4870482738       30.8419491173
  H         4.2832136667        6.6239569851       30.3851035673
  H         4.1957614847        5.9747322968       31.9852366462
  H        -9.1755393629       11.3327973269       26.6938161652
  H        -9.3348854874        9.6240080431       27.2025231237
  H       -10.5668057479       10.5495523375       26.1840982239
  C        -3.9396271073       15.1420697853       38.7004210058
  N        -3.6640889136       16.4836629785       38.7405772106
  O        -2.7516075058       18.1542688413       37.5079424959
  S        -4.7001398534       14.2879143334       40.0500589703
  C        -3.7051077993       17.3159613178       40.0001762726
  H        -3.7152395214       18.3797710877       39.7222220294
  H        -4.6092736340       17.1655578130       40.5676056897
  C        -2.4217122638       17.0728341109       40.8114029964
  H        -1.5030896014       17.0037431740       40.1776500127
  H        -2.2796268609       17.8521570192       41.5540409671
  H        -2.4483805353       16.1257855937       41.4030798734
