352
i=
  H         4.5925251721        1.7521123080       12.6001375449
  C         3.9418756459        2.5733380239       12.7450162632
  H         4.5978862122        3.4935979605       12.7833000994
  C         2.9637031115        2.7742422938       11.5562593458
  C         3.2419914996        2.3846100480       14.1411871064
  C         3.7695406931        3.0736289949       10.2441462878
  H         2.2318897578        3.5554668187       11.9055702182
  H         2.4410350273        1.8430476306       11.2422101991
  H         4.0763108462        2.1831055688       14.8350931803
  H         2.6642460040        1.5277400533       14.0761904890
  H         2.6504617119        3.2095681945       14.4956115605
  C         4.1744568226        1.7671824322        9.5124202268
  H         3.2028792056        3.8332001375        9.5808613928
  H         4.6113649152        3.7049966330       10.6142195271
  C         4.9028004556        2.1301111390        8.2151361893
  H         3.2524026311        1.1796942628        9.2473752397
  H         4.7778125476        1.1336491843       10.1904393748
  C         6.1999875718        2.9289327378        8.2911859076
  H         4.3321395770        2.8862428179        7.6933629044
  H         4.8671692052        1.3630523258        7.4783820769
  C         7.3954109437        2.1542646436        8.8701834996
  H         6.3999096548        3.2287659600        7.2707919538
  H         5.8901239342        3.8728114137        8.7561381481
  C         8.6818722045        3.0015820734        9.0848866537
  H         7.7059194256        1.3499164145        8.2347651324
  H         7.0647123367        1.8085503831        9.8336022064
  C         8.3758450183        4.3452046710        9.7520676394
  C         9.2634902506        3.6658913546        7.8906585395
  C         9.7400662128        2.2197543118        9.9982955357
  C         8.6794312440        5.4688182189        8.9550002663
  C         7.8716081721        4.7336026236       10.9789038315
  C         9.1666560184        5.0364589448        7.7224575332
  C         9.8664815399        3.0200170628        6.7488259089
  H         9.1168882354        1.7918620341       10.7987370215
  H        10.0829256987        1.3756222145        9.3703615304
  C        11.0071454228        3.0448047024       10.5218999024
  S         8.4048938308        6.9623766980        9.7924895841
  C         7.9084330385        6.0754805667       11.1505100300
  H         7.6488118111        3.9069796563       11.6673463748
  C         9.6660949961        5.5796471916        6.5661929671
  H         9.6573078380        1.9725600521        6.6458625117
  C        10.2555956932        3.6022255825        5.5644844489
  H        10.7423203494        3.9808204631       10.9380939041
  H        11.7496699321        3.2318157234        9.7949091428
  C        11.6801120741        2.3463906259       11.6684866304
  C         7.5139034490        6.7700713446       12.3673354962
  C        10.2403298306        4.9305371003        5.4264334044
  H         9.6401104097        6.7046068636        6.5342378807
  C        10.6647374610        3.1344230252        4.3279332589
  H        12.7227107179        2.6867117210       11.8384485253
  H        11.8090693780        1.2178265030       11.4041349441
  C        11.0137779538        2.5012539459       13.0761663915
  C         7.5210320898        8.1479615095       12.6453449548
  C         7.1993198333        5.9153182960       13.5244567879
  C        10.6627781038        5.6416207287        4.1368878018
  C        10.9831482695        4.1934301284        3.5059743234
  S        10.8366365728        1.5398834387        3.5212922361
  H        11.1201096034        3.6227132728       13.3033742851
  H         9.9681262968        2.3151233244       13.2217854326
  C        11.7614737362        1.7779170914       14.2221930838
  N         7.8408453357        9.2231501076       11.7451734129
  C         7.2708079807        8.6501498266       13.8956841430
  C         6.8977586004        6.4628041182       14.7981745227
  H         6.8292004755        4.9095726353       13.3990210424
  C        11.9018503305        6.4300634414        4.4362009433
  C         9.6496435944        6.4546073518        3.2417445344
  C        11.3279827048        3.7008210325        2.1909345967
  C        11.2882258292        2.3168704648        2.0867106641
  H        12.8782731058        1.6940454180       13.8900345250
  H        11.5042657598        0.7296287794       14.3659194927
  C        11.8382833893        2.4898208095       15.5040247585
  S         7.5603806149       10.6282279388       12.5272114074
  N         7.3180288456       10.0069627928       13.9973880605
  C         7.0292006536        7.9154558646       15.0276183166
  H         6.6249784687        5.8462076506       15.5939419901
  H        11.5914260414        7.4410479734        4.8962644514
  H        12.4235166888        6.6477764289        3.4957375303
  C        12.9578614582        5.6373833890        5.2600032708
  H         9.1766239921        7.2434590869        3.8488016542
  H        10.3630485053        6.9649138960        2.5580823048
  C         8.5546699537        5.5913162121        2.5355579531
  H        11.5011568150        4.4438288255        1.4693898911
  C        11.5798782606        1.6051893188        0.7805174887
  H        12.0274574860        3.5080690147       15.3776665051
  H        10.8458909547        2.5506456917       15.9165706710
  C        12.8699894700        1.8381917256       16.3482316793
  C         6.7678211823        8.6442225675       16.2485575215
  H        12.5155713210        5.4001190993        6.1816638394
  H        13.2543645055        4.6489483778        4.8326512560
  C        14.2049232493        6.5120234282        5.5749207043
  H         8.1220821786        5.0487870876        3.4061444604
  H         8.9704943076        4.8761288512        1.8490346836
  C         7.5410745527        6.4492539498        1.8597923655
  C        11.6311864052        0.2139236083        0.6728007808
  C        11.8020365764        2.3353427310       -0.4826597513
  H        13.8291866420        1.7354425257       15.9266414837
  H        12.5639670935        0.8763675577       16.5778530057
  C        12.8762617152        2.6251947363       17.6401806206
  H         6.8315948234        9.7190039034       16.2843623032
  C         6.4546601312        8.2107253515       17.5120328232
  H        14.0460876721        7.1892764711        6.4467325686
  H        14.4415192598        7.2320870582        4.7448729947
  C        15.3821965680        5.5908466133        6.0048074885
  H         7.3279793698        7.2354511856        2.4987436848
  H         8.1094089721        6.9536554399        1.0518253572
  C         6.2057241063        5.7540170330        1.4874406499
  N        11.5291975935       -0.7026256895        1.7542593722
  C        11.8281027260       -0.4699500921       -0.5745092147
  C        12.1502246820        1.6499743503       -1.6558752311
  H        11.8531882839        3.3681867870       -0.3892727894
  H        13.4644579916        3.5639426156       17.5614502189
  H        13.2940239233        2.0517894366       18.3997931955
  H        11.9038106161        2.7381566945       18.0329341959
  S         6.1488019605        6.5668304304       17.9773369536
  C         6.3705248885        9.1734097555       18.6218093723
  H        15.0398695983        4.9763036199        6.8696756554
  H        15.5133468831        4.8095617294        5.3165771019
  C        16.6889243526        6.3187411504        6.3478699576
  H         5.8916928080        4.9655221526        2.1185780853
  H         6.4817971162        5.1870034010        0.6115346780
  C         5.2248998207        6.8572281986        1.1604393360
  S        11.3011194148       -2.1751254281        1.1621078127
  N        11.7830707072       -1.8570440594       -0.3693435814
  C        12.1439621365        0.1681323961       -1.7768215201
  H        12.3574179524        2.2071406555       -2.5587938083
  C         5.8063647687        7.1798122907       19.6078054718
  N         5.8689619771        8.5443620128       19.7230343819
  O         6.5782802581       10.3623875665       18.4730943076
  H        17.3982458571        6.2328417251        5.5798165312
  H        16.5249601587        7.3866644300        6.5771041580
  C        17.3388767242        5.5296287432        7.5862639323
  H         5.7321222058        7.5292520471        0.4104901891
  H         4.3573616352        6.4749459099        0.5402891328
  C         4.7520585751        7.6224565158        2.4108380461
  C        12.4939000273       -0.6045597230       -2.9591249475
  S         5.3646878484        6.1985357488       21.0097256960
  C         5.7333525073        9.2347353799       21.0132342467
  H        16.7722768144        5.6759863042        8.4477769050
  H        17.3367161601        4.4499509013        7.3266449819
  C        18.7363782960        6.0309296630        7.9153880927
  H         5.4913736802        8.2718892374        2.8428226831
  H         4.4609592673        6.8623379409        3.0905291570
  C         3.4806770591        8.4201962957        2.0569642198
  H        12.2925569284       -1.6548241154       -2.8719385770
  C        12.9240548582       -0.2782237696       -4.2360591511
  H         5.0713292121        8.7443258040       21.7153139208
  H         5.2802645655       10.1738291104       20.8269001703
  C         7.0446946704        9.4008679673       21.8214490560
  H        19.0917583822        5.5418984218        8.8372399019
  H        18.6588875776        7.1270383039        8.0852507541
  C        19.7560865628        5.8007811684        6.7340044442
  H         2.6929431467        7.7854578763        1.5769140515
  H         3.0790743646        8.7646463490        3.0407887028
  C         3.7809496759        9.6048721453        1.1157587140
  S        13.4365285782        1.2276171871       -4.7728171400
  C        13.0792307696       -1.3418451647       -5.2592549652
  H         7.8509536958        9.5305913753       21.1920175062
  H         7.2993582002        8.6405738089       22.6672376964
  H         7.0214163454       10.3736766893       22.2976437836
  H        20.7828528874        6.0561866121        7.0741719125
  H        19.7176245426        4.7426923936        6.4264280986
  H        19.5852760108        6.4759470961        5.8584114397
  H         3.2104537228       10.5516445724        1.2874232925
  H         4.7722842064        9.8642290953        1.4265575102
  H         3.7105043365        9.3891168485        0.0640046882
  C        13.6867720107        0.4909616927       -6.3804486614
  N        13.5506882404       -0.8397784382       -6.3741285546
  O        12.7448754718       -2.4867926526       -5.0876823238
  S        14.3347801457        1.3668062272       -7.8095302262
  C        13.7808691302       -1.6714742866       -7.5470525957
  H        13.9676667244       -2.6858789611       -7.1648414622
  H        14.6473464155       -1.3746916622       -8.0774111903
  C        12.5469585917       -1.6447647980       -8.3863276041
  H        12.7480776986       -2.4752386034       -9.1119009983
  H        12.4938247022       -0.6780047403       -8.9550592768
  H        11.6408817541       -1.7601622746       -7.7343344409
  H        -3.7810305742       13.0494109311       16.2141251435
  C        -2.7107168897       13.3770448423       16.2574807340
  H        -2.1232708732       12.6909157871       16.8131555688
  C        -2.8750748796       14.5640995565       17.2043201537
  C        -2.1951052421       13.6412869811       14.8470007265
  C        -3.2691935845       14.0637740731       18.6052111726
  H        -1.9541716555       15.1617467121       17.2904234108
  H        -3.6036543785       15.2476410377       16.7795453499
  H        -1.7181536884       12.7834919967       14.3713462486
  H        -2.9130779517       13.8671155223       14.1132914138
  H        -1.4237654392       14.3802284158       14.8520865878
  C        -2.0998756353       14.1415529309       19.5072303108
  H        -3.6619202892       13.0381421956       18.5611827513
  H        -4.0751109858       14.7808601794       18.9338320306
  C        -2.5539018603       13.5449536111       20.8259654704
  H        -1.3297162546       13.5134406924       19.0962477401
  H        -1.7855551158       15.2087300601       19.7305656629
  C        -1.2696260214       12.9460352071       21.4964008596
  H        -3.2868331460       12.6679715847       20.7525895917
  H        -2.9565948382       14.3364933434       21.4710109442
  C        -0.2822807618       13.9245050595       22.1926473299
  H        -1.6387312272       12.1292879103       22.1115115073
  H        -0.5805772173       12.5147764842       20.7534115182
  C         0.8874975222       13.3176623959       23.0494134602
  H         0.1713135967       14.5346260980       21.5388457960
  H        -1.0080704963       14.4942120377       22.8428232123
  C         1.2841301112       12.0100029939       22.3368754148
  C         0.5612148496       12.6006732567       24.3224989762
  C         2.1480526810       14.3535718607       23.2219538853
  C         1.0244730955       10.8757358334       23.1035736771
  C         1.8429751542       11.6843035892       21.0878339982
  C         0.5323417933       11.2446177984       24.3026767663
  C         0.0998522229       13.1692678311       25.5222071017
  H         2.2504963769       14.9235553792       22.2770525691
  H         1.8056909232       15.0875906533       24.0685332847
  C         3.4850812691       13.7104293543       23.7496853128
  S         1.1185322137        9.4543304588       22.2316879777
  C         1.7463499178       10.3532081322       20.9033069946
  H         2.1423173551       12.5167156116       20.5033181410
  C         0.1479884606       10.5462573677       25.4046090750
  H         0.1373297104       14.2255466532       25.5393053776
  C        -0.2604633178       12.4708417821       26.6417951893
  H         3.6963722059       12.8854029260       23.1172866906
  H         3.3371246498       13.3755759430       24.7338253123
  C         4.5185077562       14.7736068947       23.7221152638
  C         2.2361049645        9.6584502457       19.7421353607
  C        -0.2743498695       11.0720126907       26.6180123374
  H         0.1639386839        9.4534020037       25.4384409965
  C        -0.6959528026       12.8431690396       27.9064399154
  H         5.2776626536       14.7031591589       24.4892172268
  H         4.0337004670       15.7528153086       23.8525975458
  C         5.1673421431       14.8532418185       22.3593115271
  C         2.2561416637        8.2605729352       19.5695935454
  C         2.7880336734       10.4441092751       18.5812166672
  C        -0.7406943983       10.4392420563       27.8695902846
  C        -0.9332194223       11.7565640471       28.6431328804
  S        -0.8409221045       14.3257367669       28.6915110374
  H         5.5409167259       15.8868915425       22.2122930763
  H         4.4589949652       14.7188470903       21.6050141091
  C         6.3994314884       13.9391310643       22.2322556436
  N         1.9552025162        7.2959753445       20.5446230914
  C         2.6977093055        7.5736982147       18.4191120945
  C         3.2716550183        9.7275243706       17.4591045848
  H         2.9528377936       11.4922288440       18.7068201752
  C         0.4098007598        9.7328499508       28.6664120349
  C        -1.9834884206        9.4729280456       27.8855180985
  C        -1.2990128879       12.0697481953       29.9861061280
  C        -1.2959610215       13.4668050764       30.1262486736
  H         7.1583244362       14.6623054804       22.2437186017
  H         6.4551647335       13.3152657814       23.0804152533
  C         6.3579365950       13.1083740949       20.9494743285
  S         2.2533354293        5.7952357593       19.9764849914
  N         2.6673365063        6.1651772617       18.4781836317
  C         3.2848383479        8.2377738217       17.3065948528
  H         3.7564262666       10.2826605308       16.7335281720
  H         0.5260029924        8.7279120981       28.2449032289
  H         0.1635201112        9.5162233378       29.6799866331
  C         1.8195191659       10.4925799166       28.6937675182
  H        -1.8346229028        8.6366313729       27.2464914527
  H        -2.0230637116        9.0104716768       28.9370185059
  C        -3.3894685357       10.0774355030       27.5870178476
  H        -1.2886425956       11.2738185331       30.6682141062
  C        -1.6063211870       14.2118374923       31.3744991108
  H         5.5150464909       12.5562866109       20.9486409220
  H         7.1022364811       12.2953848992       20.9087058899
  C         6.3326293976       13.9086360650       19.6527677797
  C         3.5611810178        7.5204536569       16.1428790609
  H         2.2518540936       10.6009826195       27.6679454566
  H         1.7011830967       11.4143689791       29.2670020625
  C         2.7909547651        9.5412197880       29.4344884439
  H        -3.3655779720       10.7285347231       26.7134916489
  H        -3.4886415015       10.7316004626       28.4340971920
  C        -4.4894190575        8.9602017195       27.4486636598
  C        -1.8613974425       15.6679854062       31.4992104915
  C        -1.8926172719       13.4378986812       32.6422772194
  H         5.9244297596       13.1890505499       18.8720842984
  H         5.6527468864       14.7765421556       19.6575085827
  C         7.7377881783       14.2737508806       19.2122240485
  H         3.4801459988        6.4262934640       16.2366307296
  C         3.6803637514        7.8978446878       14.8232826908
  H         3.0896827928        8.8124026364       28.7141146993
  H         2.2813374762        8.9358517257       30.2131402223
  C         4.0224470093       10.2862445052       29.9407373442
  H        -4.2571871177        8.2959004536       26.6575196199
  H        -4.6208539422        8.3257955794       28.3102407098
  C        -5.8938905656        9.4880605762       27.1291759704
  N        -1.6630619884       16.6340147827       30.4945181607
  C        -2.1805297995       16.2496487015       32.7141455952
  C        -2.2649339285       14.0186735554       33.8071094450
  H        -1.8873571107       12.4519355768       32.7058006987
  H         7.7297506581       15.1719779285       18.5528266562
  H         8.3640076922       14.5548078005       20.0934659477
  H         8.2336971095       13.4117308351       18.7105102841
  S         3.9846290925        9.5080797794       14.1717225370
  C         3.6765199169        6.7711682934       13.8432551069
  H         4.2544551773       11.1257999565       29.2780364741
  H         3.7679584868       10.7255271996       30.8899981297
  C         5.2999413932        9.4919156719       30.0108374718
  H        -6.1429659650       10.2770323781       27.8297190203
  H        -6.6327560355        8.6962290804       27.3872120990
  C        -6.1190007557        9.9626169221       25.7088129220
  S        -1.9459206939       18.0840064693       31.1563749418
  N        -2.4347783121       17.6285141056       32.6217108232
  C        -2.3822593441       15.4877076272       33.9251706548
  H        -2.4409885873       13.4059853647       34.6525290754
  C         3.9553406940        8.6976270306       12.5770832780
  N         3.7923063742        7.3025016406       12.6366563697
  O         3.7405723182        5.5564936465       14.1164517660
  H         6.0733737713       10.1685072455       30.2298377878
  H         5.4969679078        8.8971620035       29.0797853342
  C         5.2854608270        8.5105538741       31.0744679858
  H        -5.3049556378       10.4742274040       25.3175159069
  H        -6.2853050878        9.1440890280       25.0769935850
  C        -7.3256547103       10.8842142961       25.3645639891
  C        -2.4950935279       16.1892970608       35.2155314980
  S         4.5370769061        9.4460258840       11.1345217132
  C         3.7830581741        6.4839482938       11.4170418533
  H         6.1937540763        8.6137000586       31.5810098252
  H         4.4470473217        8.7051390359       31.7260676301
  C         5.1560869490        7.0976604211       30.5484660020
  H        -7.2274407678       11.2046089966       24.3514729938
  H        -7.3409190221       11.7282624421       26.0053103360
  C        -8.6188048110       10.0163221570       25.4977119399
  H        -2.1291105806       17.2153781922       35.1488115587
  C        -3.1065302649       15.8440410149       36.3862756397
  H         4.6105359313        6.6431561983       10.6781494500
  H         3.8912945138        5.4557780996       11.7322880742
  C         2.4495414293        6.7050862143       10.6952582311
  H         4.8517497325        7.1179593497       29.4973387537
  H         4.1795682092        6.6506824286       31.0030650430
  C         6.3897002931        6.2103937868       30.7331268283
  H        -9.0705215583       10.0795857883       24.5213046105
  H        -8.3994687566        8.9776044757       25.8240019111
  C        -9.6046867042       10.5617259292       26.5436730690
  S        -3.7924864469       14.3380355089       36.7746128937
  C        -3.2661171095       16.9123300940       37.4002057848
  H         2.6929673237        7.2066317237        9.8084899456
  H         1.9527770508        5.7123814081       10.4718818124
  H         1.8126253763        7.2745023723       11.3177195588
  H         6.3592768395        5.7504005910       31.7194412482
  H         7.3417986074        6.6609561839       30.5720137787
  H         6.4406670171        5.3750798930       30.0030081860
  H        -9.3033521402       10.1917334919       27.5129955715
  H       -10.5378337344       10.1696399231       26.1794902933
  H        -9.6232520324       11.6307614444       26.5529009636
  C        -4.1614022645       15.0167495686       38.3372866139
  N        -3.9704154857       16.3798498028       38.4203189852
  O        -2.9575038722       18.0444443096       37.2779111227
  S        -5.1427565551       14.2380217795       39.5705297356
  C        -4.1749312230       17.1645034285       39.6999267487
  H        -4.4219372852       18.2700254919       39.4510680588
  H        -4.9871861842       16.7675330776       40.2899131976
  C        -2.8679244594       17.1362707030       40.4810285713
  H        -2.6700183171       18.2046496025       40.7242176049
  H        -2.8305075991       16.7536093428       41.4347975591
  H        -2.0805847802       16.7913063925       39.8088960842
