352
i=
  H         3.3412474297        3.9472246052       12.1001873061
  C         3.3829245765        2.9455449515       12.4812808803
  H         2.3680073179        2.5868539664       12.3795770193
  C         4.3839260753        2.1893925604       11.6180436967
  C         3.7771017699        2.8072237386       14.0054365138
  C         3.7993487787        2.0664196755       10.1347367206
  H         4.5750042346        1.1962650785       12.0167312250
  H         5.3337942828        2.7080150270       11.5667759514
  H         4.5676296053        2.1086139686       13.9229225969
  H         3.0154966554        2.4004446041       14.6789427577
  H         4.1718117336        3.6951249473       14.4539656955
  C         4.7351586290        1.1933109191        9.2724756517
  H         2.8201186013        1.5959714886       10.2065154710
  H         3.6159384806        3.0956264276        9.7987939501
  C         5.4700211376        1.9080945992        8.1179323423
  H         4.0237285744        0.5431274700        8.7787265798
  H         5.5446479538        0.5934997429        9.7574032919
  C         6.6421814196        2.8195434094        8.5846272842
  H         4.7604786348        2.5625925233        7.5589961662
  H         5.7967365743        1.0821857756        7.4100140768
  C         7.7180488227        2.1556051279        9.3280044774
  H         7.0948138219        3.1481773562        7.6979799119
  H         6.1899121019        3.6719720864        9.1732818958
  C         8.8580433800        3.1196615329        9.4876706390
  H         8.0660114809        1.2806917232        8.6822579797
  H         7.3398220444        1.7003812059       10.2648944862
  C         8.4720775667        4.4650625414       10.0489446260
  C         9.3941452077        3.6874335587        8.2367879217
  C         9.9138640317        2.5095924740       10.4373142638
  C         8.8298838778        5.5443426810        9.2486322650
  C         7.7005836744        4.8716418269       11.1508107794
  C         9.3890074232        5.0478371201        8.0878219193
  C         9.7392085537        3.0517472540        7.0839713139
  H         9.3028627674        2.2020379299       11.3241498710
  H        10.3399710424        1.6370961836       10.1366323331
  C        11.0940349412        3.4101889016       10.8272201072
  S         8.2912087879        7.0046084454        9.9485746234
  C         7.5539996464        6.1926789808       11.2457743762
  H         7.1672101348        4.1438072931       11.6660696841
  C         9.7073593201        5.6459003771        6.9168129432
  H         9.6547575622        2.0346478189        7.2459363429
  C        10.0502236739        3.6931216135        5.8899753746
  H        10.7073622351        4.3206033536       11.3517178926
  H        11.5107044609        3.7707675493        9.8744281539
  C        12.2388525386        2.8215332143       11.8300472879
  C         7.1016986090        6.9172355900       12.5095961404
  C        10.0804744206        5.0166437933        5.7543963218
  H         9.6518359129        6.7354631261        6.7567050140
  C        10.4666185697        3.2760462004        4.6039937841
  H        13.2098269670        3.3617207420       11.6606277592
  H        12.4420934900        1.8379827540       11.5335625189
  C        11.5930878971        2.7026073622       13.2667114417
  C         7.4393148463        8.2444915053       12.8702632799
  C         6.5122176771        6.1126117235       13.6077944361
  C        10.5688696870        5.6654073936        4.5003601741
  C        10.7908842286        4.3125123717        3.7465458321
  S        10.9223883045        1.7498813302        3.8360684858
  H        11.2092813429        3.7054088914       13.7004244869
  H        10.6822149183        2.0657730583       13.1718609582
  C        12.5941257556        2.1228491321       14.2450589373
  N         8.0906473015        9.1710377964       12.0467910340
  C         7.1359195559        8.8207038039       14.0916740265
  C         6.2570669131        6.6418815744       14.8757211718
  H         6.1578325087        5.0762380549       13.4495273335
  C        11.9069619043        6.4492297036        4.7896076934
  C         9.5159303925        6.5758533425        3.7609587511
  C        11.1364204122        3.9247339305        2.4441789056
  C        11.2134411421        2.5583530320        2.3308057734
  H        13.3974601166        2.8385637653       14.1780519938
  H        13.1033290032        1.1791893660       13.9701979877
  C        12.0551632861        2.0451866328       15.6444364944
  S         8.0351486933       10.6750645561       12.8153772273
  N         7.4721164349       10.1432779815       14.2472484777
  C         6.6319090034        8.0845433222       15.1542260955
  H         5.9221207287        6.0248248489       15.6965188868
  H        11.7499294022        7.4481579639        5.2123432551
  H        12.3758798161        6.5920156513        3.8235059118
  C        12.9481118579        5.6195043080        5.5354748281
  H         9.1546407593        7.4074168812        4.2794767827
  H        10.0688671687        6.9963266362        2.9182172067
  C         8.2240382812        5.8943794873        3.2321334153
  H        11.2996380248        4.7295994520        1.7047031145
  C        11.5413404980        1.7507868256        1.0744500376
  H        11.3876280814        2.8372543017       15.8433209824
  H        11.4219888560        1.2026780298       15.6930286275
  C        12.9723415386        1.9640819093       16.8472757858
  C         6.5998637928        8.6496735597       16.4038625983
  H        12.6432238726        5.3206537590        6.5746968255
  H        13.1098936592        4.6939718379        5.0232794442
  C        14.3383448227        6.2724031585        5.5515604364
  H         7.7781418501        5.2578852234        3.9977637939
  H         8.5582562881        5.2403751292        2.4080047661
  C         7.1770755729        6.8618317033        2.7688910887
  C        11.6919660842        0.3377105019        1.0234155886
  C        11.7343883263        2.4355528514       -0.2164656768
  H        13.7421369378        1.2688531071       16.5986359327
  H        12.4623387066        1.4925909257       17.7329066727
  C        13.5489603070        3.1957415796       17.3661262647
  H         6.6348492386        9.6881320611       16.3635746607
  C         6.3468223156        8.1690391737       17.6484841139
  H        14.3762747949        7.1523862218        6.2241498865
  H        14.4644041334        6.6468141798        4.5438644680
  C        15.5123612648        5.3596381411        5.8512695263
  H         6.9208371219        7.5329347821        3.6119301856
  H         7.7302816255        7.5694699692        2.2027142742
  C         5.9335678006        6.2207176501        2.0586478242
  N        11.4764647399       -0.5524901345        2.0891750803
  C        12.0785126195       -0.3536571712       -0.1295493260
  C        12.2280809522        1.7170403101       -1.3099244800
  H        11.6487731513        3.5211556520       -0.2415284573
  H        12.7308071084        3.8680152859       17.7643114673
  H        14.1696343764        3.6683830376       16.5780670254
  H        14.2103079789        2.8948680773       18.1915788636
  S         6.2459891071        6.5371146734       18.1895956109
  C         6.1388107094        9.1901135756       18.7354501932
  H        15.3339360329        4.8551468384        6.7524316877
  H        15.6063234897        4.7424194191        5.0119549078
  C        16.8509359531        6.1101350415        5.9694250349
  H         5.6935465655        5.2291746234        2.5567189882
  H         6.2603099555        5.9732592101        1.0734236167
  C         4.7122610556        7.1626780102        1.9213764680
  S        11.7046288924       -2.0469138137        1.5157731446
  N        12.0054764268       -1.7296061877       -0.0198479679
  C        12.2987050818        0.2630852060       -1.3897311201
  H        12.4951917723        2.2644459750       -2.1605533488
  C         6.0497791728        7.1543898046       19.8266780531
  N         5.9859321029        8.5430195203       19.8925904845
  O         6.2097296238       10.4067657122       18.5537608956
  H        17.3786802113        5.9955899506        5.0003628558
  H        16.5823500432        7.1846006053        6.1390601642
  C        17.7196069900        5.4350875030        7.0716293358
  H         3.8853594067        6.4862250783        1.7541463322
  H         4.4971672718        7.7312633677        2.8699093090
  C         4.8103823691        7.9762459608        0.7040955311
  C        12.7180963017       -0.5358590205       -2.5376368965
  S         5.4695070372        6.3409909316       21.2406175614
  C         5.9069594575        9.3022226860       21.1409853642
  H        17.1377135749        5.3371434078        7.9937773095
  H        17.9035228948        4.4304297671        6.7729203073
  C        18.9621158791        6.1960040566        7.4727829648
  H         4.8449957591        7.3164279351       -0.1130706453
  H         5.8065262154        8.4184153022        0.7162803537
  C         3.6083682184        8.9614315079        0.5918863979
  H        12.5392139362       -1.5695190817       -2.5050793104
  C        13.3166991686       -0.1849952024       -3.7492387707
  H         5.2591521781        8.9078928876       22.0405051777
  H         5.5084066091       10.2558452484       20.8282262366
  C         7.2983329012        9.6308640206       21.8350093079
  H        19.2659346316        5.7474638135        8.4479684253
  H        18.6548633969        7.2345552618        7.5945864229
  C        20.0387518093        6.0688164274        6.5197017686
  H         3.3841598091        8.8474032901       -0.4395770339
  H         2.6950325974        8.6601713114        1.1454852077
  C         4.0007251268       10.3203353469        1.2492003793
  S        13.9283330807        1.4036078396       -4.2614874062
  C        13.5098584288       -1.2562984602       -4.7195856483
  H         8.1168598842        9.5906700575       21.1463074494
  H         7.5230240298        9.0005783471       22.6698803805
  H         7.3864975347       10.6671117623       22.1255750735
  H        19.7591840307        6.7161603711        5.6277337939
  H        20.8753610596        6.4788609379        7.0542548924
  H        20.1778798648        5.0614538997        6.1982116943
  H         4.0224343878       11.0445921748        0.4739974220
  H         3.2127395858       10.7048439128        1.9193599441
  H         5.0068896296       10.3467336131        1.7406847788
  C        14.4206182822        0.5491090137       -5.7490803823
  N        14.1947025922       -0.8047158537       -5.7932403996
  O        13.0909386017       -2.4025749055       -4.5058935363
  S        14.9405303865        1.3141573317       -7.3022089765
  C        14.2740700333       -1.5383602536       -7.0377025327
  H        14.4327752311       -2.5750198568       -6.6092884516
  H        15.1252448979       -1.3733760111       -7.6656479550
  C        12.9981759972       -1.3901497270       -7.9162045231
  H        13.4058800622       -1.3465097271       -8.9514687189
  H        12.3986201570       -0.5497560693       -7.5427113944
  H        12.4199058784       -2.3256054023       -7.9295855202
  H        -3.1342904705       15.2412696279       16.6093055909
  C        -2.6931239559       14.2780449541       16.4469867603
  H        -3.4523593711       13.5727006293       16.6154783333
  C        -1.4384244703       14.0283768803       17.2806519963
  C        -2.4578707061       14.1198335100       14.9191474514
  C        -1.5250725458       13.1621452388       18.5568652965
  H        -0.7130662373       13.5013183047       16.6063117110
  H        -1.1017677380       15.0066103612       17.5763882004
  H        -1.6140044706       14.6123366549       14.4816920065
  H        -2.3911513073       13.0722052138       14.6694557498
  H        -3.2736889816       14.5422707413       14.3344721009
  C        -1.9131115847       14.1297631770       19.7303506109
  H        -0.4488809967       12.8221804586       18.7560909895
  H        -2.1820888646       12.2856519753       18.4540196880
  C        -2.2903071087       13.3454520320       20.9897270825
  H        -1.0080342981       14.8238153143       19.9811088387
  H        -2.7391762842       14.7442258725       19.5205344691
  C        -1.1544189907       12.7043414974       21.7033396959
  H        -3.0503841964       12.5854368981       20.7812392289
  H        -2.8386626821       14.0690261580       21.5972565105
  C        -0.1177043745       13.7135433130       22.2482942564
  H        -1.5407767244       12.0560335843       22.4761685391
  H        -0.6085495577       12.1304905428       20.9741526423
  C         1.0586784773       13.0966570337       23.0699675738
  H         0.2995150580       14.1840542748       21.4177705868
  H        -0.6024589161       14.5194501218       22.8048768994
  C         1.4882798110       11.8499724932       22.4478859400
  C         0.7310080112       12.4507396124       24.3387696590
  C         2.2548145116       14.1957123242       23.2852849870
  C         1.2789395279       10.7220479251       23.2434642269
  C         1.8367464557       11.4460860766       21.1345893609
  C         0.7953071741       11.1163925800       24.4821782982
  C         0.2683762897       13.1481176312       25.4466189023
  H         2.3306739119       14.7957222697       22.3860887161
  H         2.0328329860       15.0187228759       23.9364536093
  C         3.5069680302       13.4581735920       23.7552479974
  S         1.8128661558        9.2246922736       22.5551144087
  C         2.0559335679       10.1178833688       21.0789226336
  H         1.6391226272       12.2378285265       20.4018023060
  C         0.4250953383       10.5011899450       25.6324480966
  H         0.2150228086       14.2357645029       25.4201846388
  C        -0.0749448144       12.5456231941       26.6567448635
  H         3.6563563340       12.4992498787       23.1919559462
  H         3.3760877039       13.0526844988       24.7621121675
  C         4.7203482108       14.3884619652       23.7628935165
  C         2.4046342914        9.4309080518       19.8031979952
  C        -0.0029406895       11.1435438405       26.8027568208
  H         0.3679945428        9.4299082673       25.6126552734
  C        -0.5017095412       13.0096502273       27.8783073457
  H         5.5370970271       13.8500514561       24.3557884893
  H         4.5473385995       15.2270001795       24.4368094219
  C         5.2877141139       14.7874730267       22.3764233224
  C         2.5925588459        8.0389031109       19.5403045003
  C         2.8726334681       10.3553698030       18.6516286619
  C        -0.4139852356       10.5821467160       28.1202485410
  C        -0.7445328796       11.9289535074       28.7573330885
  S        -0.8690135745       14.5367237822       28.5966247406
  H         5.9116925275       15.6900800293       22.5304335543
  H         4.5558633185       15.1205775170       21.7160490074
  C         5.9737740486       13.6885168596       21.6166419327
  N         2.4210537333        6.9396294716       20.4307384281
  C         2.8506728434        7.5803807281       18.2820739466
  C         3.0818084245        9.8382860850       17.3463234403
  H         2.9682616461       11.4532362829       18.7967246690
  C         0.7269776574        9.8557195028       28.8723484145
  C        -1.5766977029        9.5962688973       27.9615091574
  C        -1.1638135700       12.3991877165       30.0209908669
  C        -1.2979751139       13.7217107476       30.0786847198
  H         7.0054705430       13.7000864261       21.8376608549
  H         5.4906323063       12.7732437760       21.8118989495
  C         5.9980905753       13.9816320084       20.0859852184
  S         2.3681727180        5.5429117325       19.6647007272
  N         2.9642051758        6.1512333721       18.2474410827
  C         2.9735106452        8.3886684856       17.1372515110
  H         3.2935209090       10.5014830036       16.5543454107
  H         0.9858719308        8.9159559237       28.3480594006
  H         0.3347544075        9.4637016840       29.7665950420
  C         2.0182110856       10.6349917687       29.0933523004
  H        -1.3330276977        8.6867640177       27.3416552567
  H        -1.8193255442        9.3375171182       28.9703644187
  C        -2.8014098699       10.1978136416       27.3385484385
  H        -1.3007461688       11.6811637105       30.8361628043
  C        -1.5928454408       14.5271829738       31.3015337717
  H         5.8156351521       15.0321408635       19.8869507394
  H         5.1508108691       13.4868440747       19.5427672535
  C         7.3606441316       13.5914421530       19.4075070850
  C         3.1538014712        7.7256497676       15.8809462506
  H         2.4766250971       11.0018545231       28.1578264577
  H         1.8396939709       11.6032698332       29.6338343608
  C         2.9502543514        9.6818814159       29.7770646237
  H        -2.5940263665       10.3517264543       26.2510987427
  H        -3.2608455002       11.0466688777       27.6783641859
  C        -4.0249629669        9.2809893643       27.3203129462
  C        -1.7539623031       15.8604516341       31.4883415281
  C        -1.9707497693       13.7177561449       32.5375079714
  H         8.1546049425       14.1422863680       19.9047071196
  H         7.4909983674       12.5473767481       19.5431742141
  C         7.3857990450       14.1621086773       17.9828996507
  H         3.1856342207        6.5993386238       15.8222068343
  C         3.3634405545        8.1908130750       14.5692857460
  H         3.3651633407        8.9443259295       29.0737641610
  H         2.3728744242        9.0521761056       30.4668035267
  C         4.0492069500       10.3525044254       30.5498197625
  H        -3.8983303826        8.5251806749       26.6066437255
  H        -4.1390111566        8.7414304748       28.2326502064
  C        -5.4046039308        9.9381452467       27.0297122014
  N        -1.4131029729       16.8236564479       30.5652629860
  C        -2.1105478710       16.5007059046       32.6657686145
  C        -2.2557335042       14.3463102891       33.7523218088
  H        -2.0280261722       12.6153242925       32.6147193410
  H         7.7809541028       13.5013387527       17.2668874674
  H         6.3887176771       14.3562020523       17.5827479133
  H         7.9191071753       15.0899105741       17.9308128739
  S         3.7852187859        9.8029918159       14.0959680022
  C         3.4836617082        7.1927811987       13.4580425226
  H         4.0806563282       11.4020974561       30.1819312738
  H         3.7896740146       10.4396403576       31.5316219990
  C         5.4232196418        9.7133286607       30.3328598848
  H        -5.6725326445       10.7479590011       27.6592019956
  H        -6.2437343518        9.3209383190       27.2570092530
  C        -5.4418572240       10.3651484164       25.6064464029
  S        -1.5377528436       18.3299069511       31.1770987658
  N        -2.1519891594       17.8499399019       32.6064210206
  C        -2.3437210897       15.7647255928       33.8771162454
  H        -2.2872092057       13.7402445332       34.6392718835
  C         4.2168558232        9.1190899587       12.5869188851
  N         3.9351671481        7.8006547520       12.3707361323
  O         3.1058093062        6.0132094884       13.5619090918
  H         6.2346862088       10.3752898882       30.7022088417
  H         5.6204069324        9.6760756505       29.1858946747
  C         5.5388316460        8.3544402862       30.9867776394
  H        -4.4974291322       10.9865410393       25.5257957656
  H        -5.3093116916        9.5458375800       24.9876486055
  C        -6.5571133402       11.3355106056       25.1732995566
  C        -2.5415886144       16.4370171083       35.0966307665
  S         4.8774261503       10.0853641605       11.2553877582
  C         3.8755542779        6.9503696756       11.0785577301
  H         5.9885987669        8.4584509280       31.9742549583
  H         4.5777164804        7.8645916120       31.1436912971
  C         6.4158113098        7.2944305935       30.2993956909
  H        -6.3286247616       11.7085113149       24.1725272598
  H        -6.6012062510       12.1248848576       25.9498098475
  C        -7.8383036402       10.6209613827       24.9846372651
  H        -2.3467369703       17.5080245288       35.0107799483
  C        -2.9831386485       16.0275960825       36.3123725850
  H         4.3256898380        7.6103568325       10.2477008657
  H         4.5302208335        6.0285326937       11.2004961744
  C         2.3611340756        6.5811767184       10.6863720422
  H         7.3359000821        7.7501841209       29.9108804693
  H         5.8462726342        6.8294817321       29.5021061549
  C         6.6963339440        6.1385700683       31.2738532529
  H        -8.3415527098       10.9543829222       24.0674245016
  H        -7.6906392227        9.5541773288       24.9298806670
  C        -8.9003962822       10.9125740816       26.0249476573
  S        -3.5888123819       14.4454801563       36.5568080406
  C        -3.0898080427       16.9581710301       37.3882016226
  H         2.1889039458        6.4237197222        9.6198361637
  H         2.0652043855        5.6987707696       11.2571028784
  H         1.7740478319        7.4706261082       10.9606341053
  H         5.8611278720        6.1109690003       32.0076933108
  H         7.5979154478        6.3749649132       31.8752693701
  H         6.7829137392        5.2683799877       30.6370466259
  H        -8.9984780281       12.0362731409       26.1570424906
  H        -8.5845485763       10.5411436145       27.0122517791
  H        -9.8127372333       10.3410041234       25.7872192825
  C        -3.9369155265       15.0398230883       38.2104274787
  N        -3.7152787994       16.3304965644       38.4019133225
  O        -2.5517384430       18.0295313343       37.3991414512
  S        -4.4532855727       14.1072143829       39.6006926788
  C        -3.9441206332       17.1531368926       39.5694716629
  H        -4.4774384271       18.0340638155       39.2411930452
  H        -4.7026104657       16.6346753131       40.2586513197
  C        -2.6815163372       17.4009208344       40.4430049055
  H        -2.9562183495       17.4811145749       41.4709802144
  H        -2.0289552295       16.6097263224       40.2927630274
  H        -2.2116885561       18.3187653610       40.0161287435
