352
i=
  H         4.7363565308        2.0749907778       12.9136684232
  C         3.9463121038        2.8065148745       12.8705318952
  H         4.4890392461        3.7453553567       12.9301872140
  C         3.0711245806        2.6607228741       11.6562315911
  C         3.1689459363        2.5848401848       14.1763605406
  C         3.8651860304        2.6649392350       10.2762559207
  H         2.3006030538        3.4548741988       11.5541934919
  H         2.5540654889        1.7450858808       11.8629800418
  H         2.8683477745        1.5182389818       14.1675193982
  H         2.2252114375        3.1540755440       14.0584004683
  H         3.7735644611        2.8788029927       15.1139935685
  C         4.8068805460        1.4239326672       10.1123754504
  H         3.2081268421        2.6146227547        9.4199880769
  H         4.4347339520        3.5730307357       10.1823705081
  C         5.4416399007        1.5011949140        8.7592835132
  H         4.2093652042        0.5769690040       10.2023457142
  H         5.6032800483        1.5133690792       10.8519256828
  C         6.6916677919        2.4054028385        8.7415505312
  H         4.7416709584        1.9375769245        8.0764898554
  H         5.7411017412        0.5127079989        8.4555496239
  C         7.9566785029        1.6398301690        9.1834254365
  H         6.8267627938        2.7059738988        7.6981369434
  H         6.5254988066        3.3321207650        9.3059226678
  C         9.1396299643        2.5662686310        9.4516722723
  H         8.2753041235        0.8939444321        8.4598111118
  H         7.7721976053        1.1213512570       10.0595801267
  C         8.7983770034        3.8340053369       10.1450088510
  C         9.4886826634        3.2990843045        8.2248046371
  C        10.4364115548        1.8091656108       10.0813633042
  C         8.8918061426        4.9864630333        9.3458002662
  C         8.3180813026        4.2475930382       11.4062381349
  C         9.3788725153        4.6188115114        8.0711167555
  C         9.8808162450        2.6725297189        7.0247423279
  H        10.0665811271        1.4886369681       11.0355121721
  H        10.6886360329        0.9783088976        9.4265363878
  C        11.6681079592        2.6764290811       10.3366994397
  S         8.2822414324        6.4775146811       10.0383419633
  C         8.1662008103        5.5951522418       11.5618708974
  H         8.1866870518        3.5469000642       12.2310788357
  C         9.6767908927        5.2416757749        6.9188246699
  H         9.9124740438        1.5854681912        7.0569137353
  C        10.1812532860        3.2827618030        5.8316579108
  H        11.4129043408        3.6501384508       10.8052982051
  H        12.1237113361        2.8490663956        9.4113607028
  C        12.6240494854        2.0345230659       11.4009387003
  C         7.6131027725        6.2960258610       12.7760641719
  C        10.1089951324        4.6439801096        5.7157032334
  H         9.7039066297        6.3302128031        6.9410501829
  C        10.5478004282        2.9568103270        4.5354917171
  H        13.5611741093        2.6232489452       11.4296556948
  H        12.8342521956        0.9402007493       11.1198804655
  C        12.0144621415        1.9428973950       12.8058324236
  C         7.6339637492        7.7093912564       12.9758789840
  C         7.1538017732        5.4950555224       13.9510517310
  C        10.5625183478        5.4241854497        4.4567558612
  C        10.7459661249        4.0547766191        3.7191977458
  S        11.0692148674        1.5180472744        3.9097419534
  H        11.2998475832        2.7992323925       12.8694892293
  H        11.4942078112        0.9972497736       12.9026953367
  C        13.0310971973        1.8451167155       13.9483113871
  N         8.1711451625        8.6324978300       12.1062738283
  C         7.2774484277        8.3321742002       14.1398773646
  C         6.8134811920        6.1342734240       15.1541501832
  H         7.0192645122        4.4388770851       13.8782380766
  C        11.8543251309        6.2244678004        4.7957671870
  C         9.4355467935        6.3638740948        3.9037279830
  C        11.2080044433        3.6015189489        2.4635224122
  C        11.2849123706        2.2781337647        2.3979331435
  H        13.8494774553        2.4248237111       13.7345328951
  H        13.2591703752        0.8077326818       14.1054569311
  C        12.4318970301        2.3478008772       15.2849020418
  S         8.0901056068       10.0935689059       12.7571374791
  N         7.4046696863        9.6729362769       14.0782745207
  C         6.9823775450        7.6110657388       15.3574140491
  H         6.4210212361        5.5766620119       15.9796281202
  H        11.5690299127        6.8398419137        5.6078353111
  H        12.1371069336        6.9669571138        4.0433929940
  C        13.0981900508        5.3712359172        5.0704863952
  H         9.0605890750        6.9930913912        4.7774153135
  H         9.8508998495        7.0035524662        3.1085002024
  C         8.2646947849        5.6170330751        3.1954034996
  H        11.4313348141        4.3651214120        1.6830135312
  C        11.6431757809        1.5284589164        1.1483591347
  H        12.4371975758        3.4383286052       15.1934052999
  H        11.4004264342        2.0599848670       15.4836692546
  C        13.2936138490        2.1046677983       16.5666826183
  C         6.7016833098        8.3520737820       16.5699727106
  H        12.9168771802        4.5177789762        5.7066324895
  H        13.2870649362        5.0330196484        4.0798868064
  C        14.2615870105        6.1739028367        5.6408092723
  H         7.7967815981        4.7933187746        3.7497022510
  H         8.7044008957        5.0470560272        2.3937195314
  C         7.1898342396        6.5512581461        2.6767469113
  C        11.6766486595        0.1355532214        1.0480977749
  C        12.0797776229        2.2704517906       -0.0195980461
  H        14.3894975412        2.3737469716       16.2994287208
  H        13.1485764654        1.0642431226       16.8094775188
  C        12.8537843923        2.8146760471       17.8245248832
  H         6.8241292796        9.4265834531       16.5069379936
  C         6.3383919388        7.9720231908       17.8490165361
  H        13.9970527050        6.8087493515        6.4278805930
  H        14.6727577866        6.8526919396        4.8870328800
  C        15.4068505389        5.3122273189        6.0767727850
  H         6.5813429825        6.8546877230        3.4913788149
  H         7.6101618669        7.4941274657        2.2819587986
  C         6.2513580552        6.0019011057        1.5667599830
  N        11.4113332263       -0.7465734231        2.0892592945
  C        12.0520546828       -0.5521295630       -0.0943163467
  C        12.3865605407        1.6083197412       -1.1980183780
  H        12.2526870853        3.3865509775        0.0534411224
  H        11.7836016866        3.1453821070       17.8706510513
  H        13.4830383111        3.7150563914       17.9538612732
  H        13.1136450730        2.1301990275       18.6492867784
  S         5.9976997497        6.3871048500       18.5271216279
  C         6.3926194642        9.0500017233       18.8521483544
  H        15.4088505581        4.9212453186        7.1759446015
  H        15.5049295483        4.3610541059        5.4832404519
  C        16.6942505304        5.9898203112        5.9667861724
  H         5.9517239830        5.0216568795        1.7480713099
  H         6.8471779243        6.0253099745        0.6378799685
  C         5.0296752695        6.8554433773        1.3943115449
  S        11.6021749084       -2.2510100964        1.5282088296
  N        12.1080788270       -1.9337082039        0.0593686701
  C        12.4125631996        0.1310033764       -1.2983737990
  H        12.7809964232        2.1188870593       -2.0866536466
  C         5.8845221221        7.1515533930       20.0911816596
  N         6.0942346919        8.4773967247       20.0670339776
  O         6.6344204226       10.2413590185       18.6978701543
  H        17.1354913263        5.7980165920        4.9940330991
  H        16.4105190929        7.0757641663        6.0723411445
  C        17.5607039573        5.6518807264        7.1670139253
  H         4.2575545273        6.1852464996        1.0659304640
  H         4.7636420343        7.2353442581        2.3725448581
  C         5.3293218427        7.9934880200        0.3776617360
  C        12.6961759403       -0.6126385776       -2.5044238182
  S         5.2454598499        6.4520462027       21.5981786738
  C         5.9500841006        9.2637023152       21.3184459542
  H        17.0032531113        5.8890318755        8.0945694866
  H        17.6546533645        4.5180538910        7.2270475830
  C        18.9376336544        6.0181637381        7.1952783805
  H         5.3511282195        7.4628403871       -0.5686821495
  H         6.3781754317        8.3425798853        0.6275454120
  C         4.3340169193        9.0904481186        0.4262274613
  H        12.5637544889       -1.6536816910       -2.4364068579
  C        13.0865254271       -0.3196881071       -3.8174501124
  H         5.0060730564        9.1055391204       21.8085439012
  H         5.7105319053       10.3558606462       21.1529299113
  C         7.2209925668        9.1810497381       22.2765998586
  H        19.4715457938        5.9276802830        8.0882031541
  H        18.8879523868        7.0384210722        6.9979309716
  C        19.6562267435        5.2436017348        6.1655391996
  H         4.3091007912        9.6771083395       -0.5248008550
  H         3.3038177397        8.7118526892        0.5667666711
  C         4.6823536375       10.0580173577        1.5332281887
  S        13.8335385357        1.1222639129       -4.2336286533
  C        13.3451339052       -1.4218809680       -4.7518934772
  H         6.9848584979        8.6590359760       23.3230238947
  H         7.7842518715       10.1542517884       22.3466340723
  H         7.8615472647        8.6163378177       21.6375644166
  H        19.5721041651        4.1830700629        6.2364472608
  H        19.5055189040        5.5150860695        5.1253452998
  H        20.7452391891        5.3582693699        6.2683043439
  H         5.0010616337        9.5331875381        2.3559879669
  H         5.4949403071       10.7671023970        1.3460868492
  H         3.8061790224       10.5207961599        1.9058125690
  C        14.1110701961        0.4045204090       -5.8309475867
  N        13.9416501665       -0.9548434004       -5.8782394125
  O        12.8683223857       -2.5262627197       -4.6833975282
  S        14.9084663550        1.2720223819       -7.1272384790
  C        14.1434432103       -1.8761768583       -6.9374147808
  H        14.2878064289       -2.8814458432       -6.5293706941
  H        15.0736565055       -1.6612955556       -7.5364686211
  C        13.0491607867       -1.7723932146       -7.9948241767
  H        13.2124554767       -2.2524429516       -8.9507445853
  H        12.8772438783       -0.6953324562       -8.3345822004
  H        12.1738497660       -2.1312320119       -7.5204158985
  H        -3.4439066538       15.1425268513       16.4734769645
  C        -3.1624002596       14.1023525817       16.5331633653
  H        -3.9593442970       13.6941453333       16.9997975934
  C        -1.9910805488       13.7780669853       17.4426839332
  C        -3.1491109064       13.4904879648       15.1643227214
  C        -2.3561696198       14.0037873970       18.9112357686
  H        -1.6517046138       12.7316513887       17.2657428058
  H        -1.1087908917       14.3867998978       17.1391097238
  H        -3.2823310523       14.3638290316       14.4781747512
  H        -2.2568489417       13.0309168972       14.7963448981
  H        -4.0142303985       12.8745436338       15.0773803039
  C        -1.2598684316       13.6418132338       19.8668287610
  H        -3.1217764657       13.3072876902       19.0773245538
  H        -2.7064026609       15.0246266237       19.1129837772
  C        -1.8918175294       13.5569758624       21.3229326995
  H        -0.7714301205       12.7071611597       19.6070317168
  H        -0.4752897725       14.3602058297       19.7053895730
  C        -1.0291932524       12.9192435785       22.3433314635
  H        -2.7728610677       12.9819179857       21.4287829246
  H        -2.1215793463       14.5842074279       21.6523547553
  C         0.1316580301       13.8811230997       22.6474299567
  H        -1.5771277669       12.6779938565       23.2282857403
  H        -0.6988088337       12.0019025056       21.8999644351
  C         1.3723852091       13.2556996397       23.2588468995
  H         0.4574227971       14.4715622114       21.7473601246
  H        -0.1459329832       14.6741058134       23.3338966285
  C         1.7134633721       11.9223252598       22.5750969555
  C         0.9695113935       12.5583875222       24.4923078276
  C         2.4908817489       14.2510278047       23.3044304404
  C         1.3982449500       10.7979125133       23.3814039668
  C         2.1776834872       11.5559847830       21.3040765721
  C         1.0417142785       11.2156628131       24.5817066321
  C         0.4846711799       13.1664999996       25.6321458852
  H         2.6468431096       14.5685245063       22.2962161570
  H         2.1722177325       15.1685338678       23.7842975670
  C         3.6907709946       13.6080547909       23.9107357525
  S         1.7506337754        9.2505205553       22.5919608886
  C         2.2544119633       10.1698896069       21.1766483068
  H         2.3961168558       12.3784116909       20.6316854685
  C         0.7235938906       10.5758860496       25.7298633587
  H         0.4161718637       14.2839829145       25.6992553796
  C         0.0873334073       12.5086864430       26.7564670013
  H         4.1974796475       12.9513423434       23.1783324894
  H         3.4153100456       12.8778504918       24.7150938857
  C         4.7365725914       14.6005067097       24.4827021461
  C         2.6081181342        9.4560325380       19.8706963854
  C         0.2043049207       11.1700595900       26.8710293494
  H         0.8452464189        9.5619293472       25.8185642573
  C        -0.3651709467       12.8240247055       28.0097598752
  H         5.3832002969       13.9574280799       25.1172066140
  H         4.3078123892       15.4674086678       24.9975635096
  C         5.5363668142       15.1146718638       23.3265722888
  C         2.4687814195        8.0828202468       19.5984637025
  C         3.1077900854       10.2831548483       18.7395392906
  C        -0.1940166558       10.3914842276       28.1385975184
  C        -0.4936543983       11.7285037191       28.8488242382
  S        -0.5798364008       14.2961851702       28.8307586235
  H         6.0753493660       15.9493503507       23.6326985152
  H         4.9128623901       15.4124222906       22.4901647214
  C         6.6355350729       14.2146472179       22.6995391528
  N         1.9126639328        7.1108910501       20.5012807164
  C         2.7426886595        7.4878331188       18.3757343640
  C         3.3849590530        9.7315027729       17.5087307488
  H         3.3639781054       11.3320241730       19.0099397333
  C         0.8346271268        9.5655606917       28.8623137795
  C        -1.4815768809        9.5710601766       28.0145489345
  C        -0.8747576175       12.0275388780       30.1886154743
  C        -0.8610782361       13.4002488685       30.3419173174
  H         7.5021133561       14.8322578936       22.5370327575
  H         6.9238069810       13.4302942390       23.4428673074
  C         6.2104420163       13.5008711237       21.3330718639
  S         1.9995594589        5.6477853680       19.8637738312
  N         2.5006553608        6.1198406794       18.3839968284
  C         3.1791693934        8.2881379096       17.2964262270
  H         3.7721799801       10.3938516305       16.7811018918
  H         1.1806336639        8.8669077220       28.1310932460
  H         0.4016532001        8.9424459757       29.6070065675
  C         1.9818298292       10.3624175626       29.3137370178
  H        -1.3149345436        8.6698324201       27.3808797482
  H        -1.7318495432        9.2573412009       29.0326711108
  C        -2.7362976718       10.2872039212       27.4961470226
  H        -1.0523290547       11.3155741155       30.9510510664
  C        -1.2821095659       14.1024651995       31.6053586723
  H         5.4392461970       14.0284643673       20.8993328238
  H         5.7491290582       12.5794301769       21.6011269778
  C         7.2701431852       13.1603263774       20.2974334949
  C         3.3342991651        7.6558760482       16.0425905356
  H         2.1472914564       11.1094804409       28.4857280380
  H         1.7705428107       10.9697819305       30.2519220531
  C         3.0701465700        9.3700702939       29.5639918985
  H        -2.5607868607       10.7816530717       26.5643057732
  H        -2.9684829174       11.1239900243       28.1690886798
  C        -3.9633282720        9.3949847187       27.3531993027
  C        -1.4428080976       15.5355206166       31.7424862353
  C        -1.7190745656       13.3176931084       32.7793172163
  H         8.0815290627       13.8643436425       20.3999233626
  H         7.4832891214       12.1820570471       20.5023888404
  C         6.7834055641       13.3086840150       18.8187515300
  H         2.9574746912        6.6502997440       15.9567921498
  C         3.7311808453        8.0236689609       14.7599262704
  H         3.3250269539        8.8314615603       28.6913736743
  H         2.8329623083        8.6534011967       30.3269794245
  C         4.2663919794       10.0601317089       30.2509638158
  H        -3.8302843662        8.5712924006       26.6296200931
  H        -4.2593926932        8.8415225267       28.2611084681
  C        -5.1219857274       10.1970600965       26.9591684586
  N        -1.0763409197       16.4813400869       30.8114908258
  C        -1.8596956278       16.0989824370       32.9235984117
  C        -2.1385243473       13.9358886629       33.9864591572
  H        -1.7984570711       12.2306491954       32.6834423626
  H         5.8247983458       12.8423045378       18.7220451141
  H         6.6977528985       14.3210101718       18.4415224556
  H         7.3111997566       12.6311138212       18.1187326855
  S         4.1414546607        9.6652066451       14.3512077939
  C         3.7695328933        6.9507923739       13.6607727817
  H         4.4697054549       10.9503540874       29.7042213049
  H         3.9730773254       10.4276412916       31.2057194517
  C         5.5721775560        9.1859528484       30.1928056633
  H        -4.8139071809       11.1606076522       26.5815809381
  H        -5.6988206950       10.2985254115       27.8022550272
  C        -6.0379208932        9.5433382143       25.9417776408
  S        -1.3312918832       17.9694994355       31.4881657223
  N        -1.8911290475       17.4903780223       32.8655481364
  C        -2.1634292955       15.4139099182       34.0735181980
  H        -2.4096843088       13.2569348596       34.8248965098
  C         4.4973956059        8.9488891051       12.7332964838
  N         4.3909204441        7.5574336912       12.6111769693
  O         3.2739642076        5.8285368603       13.7775769394
  H         6.4089613326        9.8007966676       30.5849428079
  H         6.0007994437        8.9650782529       29.2434799627
  C         5.5906511069        7.9128503417       31.0255748458
  H        -5.3883193742        9.0928407685       25.1870771967
  H        -6.6955727335        8.7306980896       26.4471601558
  C        -6.9977687924       10.5979206482       25.2946633887
  C        -2.3964103300       16.1367160290       35.3639528006
  S         4.6818261769        9.8576612650       11.2609667937
  C         4.4558305452        6.8167958394       11.3745636369
  H         4.6950326981        7.8762638077       31.7034094647
  H         5.3855687200        7.0314667294       30.3756858663
  C         6.8946188340        7.6976780970       31.7718271835
  H        -6.4186569375       10.9696290247       24.4944558828
  H        -7.1475783574       11.3713452039       26.0801350236
  C        -8.3748135331       10.0238270673       24.8805692877
  H        -2.1025412727       17.1429631305       35.2011115648
  C        -3.0439915077       15.8382871385       36.4998953288
  H         5.2368143213        7.1754679255       10.6956082551
  H         4.7757622957        5.7900229682       11.4699815489
  C         3.1333496773        6.7678433938       10.5467011050
  H         6.9335860951        8.3945789303       32.6506984981
  H         7.6940599844        7.8331630502       31.0562881188
  C         7.0294378939        6.3086441239       32.4698659973
  H        -8.6809282413       10.5707961452       23.9799559870
  H        -8.2869110391        8.9319543783       24.5590520623
  C        -9.4104223959        9.9150567381       26.0172989923
  S        -3.8138441857       14.3682382098       36.8623145302
  C        -3.1744175869       16.9835869477       37.4028769147
  H         3.2306937004        7.4471780888        9.7102750039
  H         3.0119869191        5.8113633333       10.1015427175
  H         2.2425829609        6.9861435896       11.1677195336
  H         7.9613618170        6.3260810100       33.0591783199
  H         7.2273397845        5.4569049210       31.7691246045
  H         6.1865060855        6.1037654814       33.1273065154
  H        -9.4379992298        8.9863327712       26.5952016050
  H       -10.4095488370       10.0695289675       25.5691463247
  H        -9.2834528637       10.7028406656       26.7476353027
  C        -4.0855084567       15.1721619866       38.3752343300
  N        -3.8313148430       16.4796019668       38.4453170005
  O        -2.6210095837       18.0383513695       37.2438865219
  S        -5.0234365132       14.4586184171       39.7071901914
  C        -3.9069767831       17.1791181220       39.6673660673
  H        -4.1848116199       18.1986849654       39.2934366506
  H        -4.8004377746       16.9432083071       40.1774989987
  C        -2.5851484695       17.2236648238       40.4329069965
  H        -2.4447221772       16.3625068110       41.0701725581
  H        -1.7679147360       17.3304354059       39.7765963535
  H        -2.6239918123       18.1258156583       41.0685150022
