352
i=
  H         2.5288822468        1.2113397409       13.3199103170
  C         3.3610611075        1.7723865604       12.8663234578
  H         4.1211068825        1.0962156900       12.4698364222
  C         2.9627179170        2.4748609783       11.5388574095
  C         3.9256604521        2.7290070030       13.9326341815
  C         4.1344967017        2.7197924168       10.4812596954
  H         2.5529330346        3.4210341380       11.7422562837
  H         2.2116059988        2.0476112494       10.8912157092
  H         4.8043406048        3.2597714571       13.6210985647
  H         4.1199934221        2.1840387534       14.8444316944
  H         3.1477025702        3.5132283757       14.1350093605
  C         4.7780969064        1.4483661073        9.8238264654
  H         3.6185018681        3.3113694866        9.6517757440
  H         4.8950550201        3.3609902928       11.0117331379
  C         5.4888763978        1.5678152456        8.4706261403
  H         4.0244807967        0.6706909918        9.6620219924
  H         5.4810337043        1.0455240829       10.5834118228
  C         6.7491597423        2.3315969502        8.5677110285
  H         4.8591415581        2.0545946418        7.7174290662
  H         5.7281718394        0.6441140252        7.9570112070
  C         7.9949345433        1.6588087909        9.2124743500
  H         7.0455878034        2.6291638590        7.5212043384
  H         6.5692572665        3.3185874828        9.0260079377
  C         9.2448878142        2.6121407878        9.3152288668
  H         8.3936719346        0.7903781485        8.6757820671
  H         7.6811653684        1.2388706515       10.2008076165
  C         8.7799166403        3.8666629947       10.0261552937
  C         9.6615636645        3.3190472624        8.0492044479
  C        10.4569097403        1.9907470292       10.1067503759
  C         8.9444255506        5.0024053049        9.2336481216
  C         8.4036546952        4.2304332635       11.3552306563
  C         9.4759224537        4.6832991711        8.0155117146
  C        10.1654842311        2.7610454939        6.8809267640
  H        10.1796374527        1.6410424741       11.0843513068
  H        10.8937998873        1.1372009021        9.6059064034
  C        11.6172007625        2.9791698484       10.3850476476
  S         8.5259755097        6.4860917530        9.9793048346
  C         8.1069232708        5.6250458601       11.4438271440
  H         8.2632715167        3.4806057638       12.1109432094
  C         9.8658942630        5.3937204028        6.8923473663
  H        10.2117973757        1.6706962595        6.8787963219
  C        10.5380867944        3.4527023857        5.7729394324
  H        11.1340485154        3.7886815931       10.9695833852
  H        12.0422050656        3.3050010560        9.4913830627
  C        12.8219315846        2.4516618885       11.2012413734
  C         7.6198293338        6.4788437694       12.6521049732
  C        10.4382138585        4.7806608379        5.7149697593
  H         9.6699656532        6.4750972984        6.9373564085
  C        10.9613353537        3.0695898486        4.4977058921
  H        13.7552475988        3.0135071624       11.0925087306
  H        12.9907483706        1.4938064901       10.8611244664
  C        12.4961551870        2.4932994904       12.7703164147
  C         7.7989515325        7.8562678798       12.9175588324
  C         7.2178580147        5.6805778725       13.8348500967
  C        10.8353177974        5.5219393235        4.4699750765
  C        11.1114162521        4.1424269123        3.6732110201
  S        11.2052584922        1.5004864111        3.7127147229
  H        12.2583187706        3.5145248206       12.9830320602
  H        11.6418159705        1.9013502630       12.9568542488
  C        13.5506954330        1.9880763328       13.6207054444
  N         8.1573868638        8.7350455135       11.9584686669
  C         7.5194458962        8.4471897777       14.1287648387
  C         7.1109924344        6.2298630160       15.1318915364
  H         7.0357479594        4.6537281746       13.7052188667
  C        12.1079822630        6.2762273383        4.5944508105
  C         9.5937147956        6.2327586195        3.8105826072
  C        11.3089137807        3.7580409521        2.3781541825
  C        11.5124430648        2.4262190985        2.2185755364
  H        14.1981460569        2.8545579768       13.8903388514
  H        14.0949937510        1.1625406027       13.0951105520
  C        13.0111924421        1.4330202792       14.9241361112
  S         8.2660867966       10.1831724415       12.6480852805
  N         7.7522743602        9.8015195853       14.1083992653
  C         7.1441564397        7.6888720723       15.2936945426
  H         6.9048149054        5.5464286017       15.9616232525
  H        11.9329361327        7.1488762386        5.3225735539
  H        12.3511596073        6.6951330012        3.5951576968
  C        13.2720548973        5.4004387522        5.0749822648
  H         9.1959599620        6.9229066256        4.5318417938
  H         9.8409792902        6.8719901031        2.9571860839
  C         8.4162377887        5.3052041363        3.4453492451
  H        11.2669977571        4.5366158148        1.6187859843
  C        11.9043175449        1.7031513373        0.9446720930
  H        12.1532195129        0.8110760947       14.6478204970
  H        13.7374477740        0.7305393850       15.3066007601
  C        12.5881171757        2.4963892257       15.9719883388
  C         6.8813115312        8.3775595210       16.5058842922
  H        12.8973569295        4.9445434794        6.0111848699
  H        13.5203893028        4.5511088588        4.4708745781
  C        14.5433971972        6.2940506070        5.4189630203
  H         8.1530939982        4.7585865893        4.3495308623
  H         8.5211100171        4.5957861546        2.5805445014
  C         7.2954715855        6.2403759838        3.0297899579
  C        11.9141538741        0.3264306443        0.7341552453
  C        12.2772262617        2.5786890653       -0.1893446943
  H        11.6822599314        2.9697847050       15.6083509084
  H        13.4075211506        3.2886911095       16.0140280812
  C        12.4816790361        2.0245332401       17.4263119863
  H         6.8341365386        9.4935296707       16.3358313873
  C         6.6525514184        8.0107997149       17.7371581791
  H        14.3281532994        6.9941179484        6.1962117785
  H        14.7531198386        6.8357873326        4.5285289871
  C        15.6662806389        5.3764904613        5.9356681853
  H         6.9641621527        6.7877859651        3.9193084333
  H         7.6543365878        6.9804741699        2.3493984825
  C         6.0919861070        5.4566884530        2.5116998523
  N        11.5371614282       -0.6657271294        1.6550288574
  C        12.3383803220       -0.2710472137       -0.4430516753
  C        12.5515914503        2.0041651036       -1.4248592227
  H        12.0862942493        3.6601363111       -0.0989256026
  H        13.2125415999        1.2419063158       17.6278286691
  H        11.4492419109        1.7674507824       17.6639580137
  H        12.7789855184        2.9028543721       18.0735899094
  S         6.3309828775        6.3839925029       18.1841306953
  C         6.4949473951        9.0427779088       18.8279007580
  H        15.4043726146        4.6306357550        6.6447185000
  H        16.0675779580        4.7920439364        5.1425161706
  C        16.7685861527        6.1819492124        6.5921928948
  H         5.7546968989        4.8168423830        3.3739867773
  H         6.3448615338        4.8525419805        1.6135634920
  C         4.8202049506        6.2968917417        2.2169462128
  S        11.5495791358       -2.0757594992        0.9207137982
  N        12.2761797151       -1.6949072548       -0.4485225825
  C        12.6341069943        0.5286471285       -1.5496391254
  H        12.7011871845        2.7142298937       -2.2713942448
  C         6.2010950884        7.0593278867       19.8463820552
  N         6.1035051424        8.3942104579       19.9479809648
  O         6.5837803406       10.2881357673       18.7091267612
  H        17.1986592799        6.9900032864        5.8746778732
  H        16.4130223636        6.8451929117        7.3389246975
  C        17.9550683142        5.3969180411        7.1847442126
  H         3.8918668882        5.6606478390        1.9846615478
  H         4.5085961061        6.8693790256        3.0938275688
  C         5.0224288294        7.2718376254        0.9746913538
  C        12.9765116800       -0.1913035277       -2.7663920229
  S         5.5222643654        6.1183514697       21.2395893797
  C         6.0224830597        9.1808432453       21.2420365474
  H        17.7695591803        4.9647168780        8.1251872993
  H        18.1443615890        4.6014127783        6.4459229470
  C        19.1880125859        6.2261178854        7.2680391392
  H         5.0527188112        6.6951465260        0.0951976722
  H         5.9555343714        7.8258221182        1.0592238557
  C         3.9237950749        8.3583620087        0.8901598479
  H        12.6178773773       -1.1708337526       -2.8580740973
  C        13.6412124810        0.1920166820       -3.9321510617
  H         5.3289678821        8.8012375091       22.0477652199
  H         5.6623330768       10.1427283047       20.9743455685
  C         7.3907162845        9.2642848712       21.8596537824
  H        19.7967702873        5.7943373121        8.0889972486
  H        18.9490139747        7.2338283842        7.3517021353
  C        20.0956454430        6.1349513107        6.0515705521
  H         4.2017585931        8.7840371213       -0.1161674924
  H         2.8791555604        7.9113343463        0.8640868124
  C         3.9120444385        9.3801597732        2.0478627697
  S        14.5421363720        1.6615012276       -4.2780406142
  C        13.7598035525       -0.8832044904       -5.0091775993
  H         8.0974352651        9.0903497333       20.9976330313
  H         7.5681079250        8.6700160047       22.7146849763
  H         7.6281373190       10.2524050647       22.2113174039
  H        19.5406355192        6.4924849098        5.1460376239
  H        21.0522593507        6.6119924373        6.1118236078
  H        20.2899457079        5.0834784517        5.8637348233
  H         4.4838833381       10.2842486096        1.7423337907
  H         2.9496877925        9.6719812267        2.3961743029
  H         4.4885137744        9.0164446683        2.8718947395
  C        14.9728505100        0.9401212234       -5.7822344312
  N        14.4629113484       -0.3411085714       -6.0115146646
  O        13.2242270969       -1.9901581441       -4.8685056232
  S        15.3834451955        1.8399492572       -7.2969911632
  C        14.4929971304       -1.0992859458       -7.2311912533
  H        14.5908653926       -2.1684530699       -7.0262144460
  H        15.3481462205       -0.7473515037       -7.8087225237
  C        13.1425039541       -0.8070412751       -8.0543548901
  H        12.2508620485       -1.2981859287       -7.5400576381
  H        13.2918155484       -1.1554625851       -9.0281530213
  H        12.8973910791        0.2638288877       -8.0574033230
  H        -1.9765920231       14.8620252382       14.7869597019
  C        -2.5029983504       14.3588130683       15.5594425946
  H        -3.3198444417       15.1153946241       15.6248355997
  C        -1.5960290752       14.0872708025       16.7991227309
  C        -2.9474245533       13.0505984939       14.7989390606
  C        -2.3179163768       14.1928357996       18.1099065925
  H        -1.2015017685       13.0798482761       16.8275957664
  H        -0.6867069488       14.6659982413       16.7285777968
  H        -2.1312521043       12.3836773148       14.6022471342
  H        -3.7162294563       12.5871017420       15.4684559062
  H        -3.3646693601       13.2674622418       13.8331186005
  C        -1.3296522454       13.8928483933       19.2423311893
  H        -3.1287768941       13.4735343934       18.0826513842
  H        -2.6932148966       15.2239886448       18.0561379421
  C        -2.0122334685       13.6504371773       20.7023321513
  H        -0.6492441314       13.0520825471       18.9418041518
  H        -0.6679773258       14.7514205241       19.3623413309
  C        -1.1935128290       13.0477572441       21.9156392789
  H        -2.8477841769       13.0123447991       20.5921697890
  H        -2.4486719802       14.6360995158       20.8181437029
  C         0.0351452257       13.8687027164       22.2503673604
  H        -1.8817365010       13.0252488724       22.7695763503
  H        -0.9271182505       12.0507900498       21.7828499446
  C         1.1411863825       13.0960672480       23.0984281586
  H         0.4381106065       14.2816507127       21.3297648900
  H        -0.2131627528       14.7338267941       22.8537863987
  C         1.4312251392       11.7784282509       22.3544554559
  C         0.5864099119       12.3161210257       24.2424115283
  C         2.4709658152       13.8727493082       23.3677478976
  C         1.1467938736       10.6352962228       23.0761960762
  C         1.9782195062       11.4503978845       21.0612887901
  C         0.5629070612       10.9577216461       24.3041929134
  C         0.1283881857       12.8847990289       25.4614490242
  H         2.8705929118       14.1141052926       22.4218175285
  H         2.3856901508       14.7911203861       23.8554494264
  C         3.5386819353       12.9600511783       23.9498352834
  S         1.6400350857        9.1713112957       22.3130451136
  C         2.0913566558       10.0949141113       20.8941284156
  H         2.3216423672       12.2504885828       20.4744148427
  C         0.2455012750       10.2788083485       25.4467460245
  H         0.0297070146       13.9776721657       25.4164627332
  C        -0.2191080743       12.2160000113       26.5992292431
  H         3.7066301172       12.1458679249       23.2585277816
  H         3.1843811064       12.4893699042       24.8439684365
  C         4.7938399753       13.7408520088       24.3460717142
  C         2.6135175508        9.4355393402       19.5980835221
  C        -0.2169158331       10.8354386890       26.6808246445
  H         0.2122917964        9.2176357525       25.4861895359
  C        -0.6245221895       12.5239772024       27.8684570396
  H         5.3470335116       13.0727807655       25.0107932774
  H         4.4345098169       14.6263080011       24.8902845600
  C         5.7246938195       14.2107262532       23.2401282192
  C         2.6548885042        8.0150477782       19.3250755951
  C         3.2638744594       10.2083648889       18.5322082005
  C        -0.5653790242       10.1392755036       27.9448987334
  C        -0.8749303503       11.4534781988       28.6933973104
  S        -0.8522016589       14.0372968368       28.6437389161
  H         6.5019082244       14.8571231304       23.6741977684
  H         5.2185350889       14.9609798625       22.6645746970
  C         6.3726597899       13.0425534888       22.5042089341
  N         2.2399119795        6.9884752247       20.2447282322
  C         3.1351246254        7.4540277465       18.1289789745
  C         3.5929747497        9.6507028726       17.3295795954
  H         3.5155003624       11.2186891444       18.7289657574
  C         0.6199182687        9.3655581731       28.5652590882
  C        -1.8820899148        9.3476324839       27.7121670177
  C        -1.2380893697       11.8320935376       29.9304224539
  C        -1.2480522351       13.1992017503       30.0790257681
  H         7.3754987169       13.0093318917       22.8278961813
  H         5.8896079541       12.0959497729       22.8164791134
  C         6.2858558758       13.2321200289       20.9493547938
  S         2.3547373904        5.5024124439       19.6107116393
  N         3.0564392836        5.9820791289       18.1950553325
  C         3.5159188523        8.1991171789       16.9902190359
  H         3.9287095453       10.4162901986       16.5973436616
  H         1.0447770008        8.6696872623       27.7830879725
  H         0.2189557062        8.6440295532       29.3190758390
  C         1.6673948804       10.1497414624       29.4473412638
  H        -1.7086930487        8.5547360917       26.9756318920
  H        -2.2218500873        8.7742335251       28.6147525374
  C        -3.1201506458       10.1509674540       27.2031330711
  H        -1.3494140970       11.0950124930       30.6954396110
  C        -1.5014259483       13.9811404260       31.3642919392
  H         5.9369848500       14.2672811167       20.7142441919
  H         5.6075664501       12.5076879775       20.5331858988
  C         7.7507358197       13.2483314365       20.3900722924
  C         3.7862674241        7.5720275915       15.7284505571
  H         1.9142024025       11.0997635078       28.8661832676
  H         1.2570415780       10.4049742022       30.4509752599
  C         2.8730832660        9.2990127906       29.6042528065
  H        -2.8184686490       10.8831849545       26.4064779541
  H        -3.5059036439       10.8913984083       27.8733818187
  C        -4.1712447591        9.2215740523       26.6992976438
  C        -1.4645763612       15.3569142606       31.5697404213
  C        -1.7073248594       13.2117294110       32.5984186408
  H         8.2088038885       14.2015334990       20.7971935139
  H         8.3617118918       12.3540605167       20.6027791630
  C         7.5315017972       13.5815862281       18.8898920244
  H         3.4947647207        6.5318025262       15.6589181100
  C         4.0611915004        8.0786113887       14.4637971802
  H         3.1863968832        9.0542758310       28.5840878752
  H         2.7044501826        8.3526429380       30.1085377610
  C         4.0893910938       10.0243962885       30.1468919145
  H        -3.6472138057        8.5874872797       26.0330409893
  H        -4.5393882208        8.5663113180       27.4759834233
  C        -5.1761901558       10.0512598083       25.9782273496
  N        -1.2323470682       16.3313478839       30.6095411674
  C        -1.7516160217       15.9428661785       32.8069605327
  C        -1.9587778543       13.7569808664       33.8792808805
  H        -1.6399741397       12.1341254748       32.5124553890
  H         8.4796989858       14.0445649230       18.5080527545
  H         7.2389481967       12.7960189992       18.2822738990
  H         6.8438302026       14.4329776048       18.7830741528
  S         4.4573679405        9.6746939013       14.0000547131
  C         4.0409689025        7.0063347895       13.3878155098
  H         4.2521110312       10.9228058613       29.4579268021
  H         3.7646127209       10.4617667413       31.1347002973
  C         5.3925470932        9.1573288697       30.2112559735
  H        -4.9080200920       10.3520223095       24.9486649460
  H        -5.2793476833       11.0181208632       26.4743095426
  C        -6.5749905308        9.4460628801       25.9334387950
  S        -1.4125044462       17.8061558521       31.2840064353
  N        -1.7840789822       17.3292109210       32.7550749904
  C        -2.0376426884       15.2176095200       34.0212016401
  H        -2.0503952750       13.0849913848       34.6868726882
  C         4.5644621768        8.9285155723       12.3895220530
  N         4.3067449991        7.6141571942       12.2445136790
  O         3.7982070253        5.8553261754       13.4981651035
  H         6.2224150931        9.7979864793       30.4341049044
  H         5.6894946052        8.7400667895       29.2416701340
  C         5.4174457434        8.0338866406       31.3285996536
  H        -6.4383099103        8.6228167017       25.2509880658
  H        -6.8411258580        8.9546880302       26.8807959714
  C        -7.6076997606       10.3643419961       25.4501095162
  C        -2.3516719265       15.9349159259       35.1927753894
  S         5.0046614429        9.7793973663       11.0055692157
  C         4.2645614360        6.8431084467       10.9955111842
  H         5.8629265825        8.2647699950       32.3152945953
  H         4.3916170094        7.7619002892       31.5719962215
  C         6.0685729475        6.7064429752       30.9016884113
  H        -7.1814312636       10.8034990044       24.5391135023
  H        -7.6648403259       11.2148240304       26.1318320980
  C        -8.9556425874        9.6768430214       25.1243145472
  H        -2.1577020055       16.9869242835       35.1139698299
  C        -2.9719153365       15.6201150169       36.3695746916
  H         4.8370545079        7.2911571621       10.1888336345
  H         4.9066449927        5.9559739314       11.1621258529
  C         2.8514810659        6.4804656194       10.4535942984
  H         6.7928640322        6.9065337080       30.0924734654
  H         5.2729595753        6.2006483379       30.3488528274
  C         6.7145939277        5.9343272787       31.9274006640
  H        -9.4850030781       10.3211199453       24.4901256688
  H        -8.8074608938        8.7026850269       24.5366199584
  C        -9.8126404812        9.5469231529       26.4437053303
  S        -3.4298957085       14.0699041755       36.9975593080
  C        -3.0482761149       16.6499964823       37.4267978634
  H         2.3374178629        7.3894032570       10.0538335015
  H         2.8744540624        5.9800626425        9.5295618519
  H         2.2238510294        5.9420728049       11.1880136291
  H         6.3172027687        4.9704088653       31.9461936892
  H         6.5557168571        6.3148466078       32.9310842981
  H         7.7656821284        5.8207328790       31.6440126595
  H       -10.8718702219        9.0965019763       26.3812394612
  H       -10.0518155358       10.4535713989       26.9537963255
  H        -9.3788626149        8.8737609332       27.1110206157
  C        -3.7455263318       14.8401920454       38.5298914399
  N        -3.6418088006       16.1487865268       38.5276378566
  O        -2.6824503292       17.8043765483       37.3249025609
  S        -4.5166396307       14.0527016311       39.9142040152
  C        -3.8900927382       16.9843433085       39.6346605755
  H        -4.0361730221       18.0158345825       39.3206388929
  H        -4.7265845207       16.7113089788       40.2487488163
  C        -2.6169462610       16.8907599610       40.4443254354
  H        -2.4953101233       17.7669030970       41.0027982717
  H        -2.5735253501       16.0263538681       41.0594909215
  H        -1.7531677331       16.8334465895       39.7525936066
