352
i=
  H         3.0977556376        3.3318183554       12.4561474005
  C         3.4127264940        2.3059214399       12.3915266968
  H         2.8357817497        1.7020871028       13.1280489428
  C         2.9867280894        1.7278666603       11.0504169438
  C         4.9180335768        2.1121485630       12.6065494268
  C         3.7406691914        2.2264887023        9.8534666760
  H         1.9004315488        1.8243533908       10.8199080879
  H         3.2119233691        0.7147928487       11.1624898692
  H         5.3677593396        2.7778234555       11.9583194942
  H         5.3532957768        1.1228497432       12.4297038261
  H         5.1872574524        2.2232385374       13.5960470723
  C         4.8215635040        1.1761007193        9.5001982608
  H         3.0023380821        2.2344582097        8.9956085874
  H         4.1847989458        3.2295200397        9.9052938188
  C         5.6470214164        1.5146460099        8.2806338180
  H         4.4755447219        0.1311589785        9.2882339509
  H         5.4828960131        0.9773638398       10.3849155776
  C         6.8396232050        2.3917091430        8.5823181032
  H         4.9029604774        1.9867940344        7.5436191942
  H         5.9654971469        0.6303817697        7.7921581117
  C         8.1438738892        1.6403429989        9.0631808694
  H         7.0493667525        2.8644330689        7.6444696345
  H         6.4201025263        3.1407965906        9.2721158436
  C         9.3432881786        2.6253253098        9.1927527737
  H         8.4579819168        0.9866448882        8.2678413127
  H         7.8272343145        1.1260599055       10.0029140530
  C         8.9881479749        3.9260992561        9.9195198454
  C         9.8321286316        3.4135308624        7.9878220616
  C        10.5138730206        1.9456458125        9.8803548380
  C         9.3574443148        5.0299655795        9.1495976870
  C         8.5461851246        4.3344610711       11.2084086148
  C         9.8928646192        4.7231790426        7.9230833885
  C        10.1850480534        2.8483458574        6.7871326852
  H        10.2494937403        1.6304216950       10.9429719113
  H        10.9240820174        1.1690910876        9.1712754869
  C        11.6664012302        2.8467224797       10.0818624447
  S         8.9150086966        6.5418055997        9.8830835264
  C         8.3361077868        5.6776756829       11.3132189939
  H         8.2458966633        3.5845720816       11.9428521656
  C        10.1056532764        5.4219422333        6.7700797777
  H        10.2879654726        1.8119766012        6.7725560190
  C        10.5155555673        3.4926337397        5.6468590516
  H        11.3731449593        3.8212056777       10.3644973662
  H        12.1119570886        3.0780498545        9.1656542033
  C        12.6087474349        2.3382743041       11.1552413521
  C         7.8714983553        6.3372018000       12.5352319486
  C        10.5162004312        4.8479661377        5.5927438751
  H         9.8820551651        6.4786858527        6.7850334957
  C        10.9370230151        3.1144361584        4.4141227738
  H        13.6076071864        2.7924273414       11.1191012856
  H        12.6795134092        1.2213772838       11.1746556208
  C        12.0843859496        2.6762796703       12.5795142688
  C         7.8968128440        7.7785061623       12.7658807837
  C         7.3462545520        5.4805392596       13.6469162945
  C        10.8230972565        5.5205191335        4.3007536975
  C        11.0630967543        4.1837515957        3.5724609424
  S        11.2970654913        1.6457441637        3.6493796845
  H        12.0082184164        3.7471815314       12.7208329510
  H        11.0606716702        2.3204414129       12.7654281700
  C        12.9591785313        2.1805609262       13.7331436025
  N         8.3448811017        8.7392263630       11.8440673987
  C         7.5260898376        8.2867686163       13.9900814258
  C         7.0079053330        6.0401154349       14.8689903040
  H         7.1421782376        4.4017667479       13.5459729066
  C        12.1536085690        6.2876819106        4.4323845390
  C         9.6638330115        6.2662014365        3.7082313901
  C        11.4842725963        3.7713353676        2.3118120604
  C        11.5825891439        2.4200620548        2.1290045854
  H        14.0030879136        2.6206123420       13.7178820352
  H        13.1719034469        1.1383025687       13.5445372038
  C        12.1785980864        2.2564097272       15.0643951159
  S         8.1816755456       10.1778388259       12.6650769951
  N         7.4582124185        9.6457511598       13.9810342527
  C         7.1101935290        7.5177281351       15.0729564741
  H         6.4748328224        5.4690984806       15.5778209686
  H        12.1859150493        7.1365508615        5.0776380249
  H        12.1834564266        6.7270837492        3.3906213749
  C        13.4125677985        5.4306520053        4.7871904279
  H         9.4439074123        7.2103689024        4.2222872930
  H        10.0598071188        6.5981607516        2.7364636991
  C         8.4036889570        5.4441004136        3.5721595752
  H        11.6237995963        4.5974533987        1.6177110228
  C        11.8732372471        1.6195268376        0.9163590202
  H        11.7573908832        3.2070835195       15.3728154300
  H        11.4748763776        1.4095738633       15.0413091569
  C        13.1392831896        1.9922976966       16.2114813087
  C         6.6992867590        8.2636029212       16.2536733951
  H        13.1642567356        4.8870880641        5.7386693288
  H        13.6457346695        4.6222408786        4.1503198687
  C        14.6316477882        6.2872349988        5.1027829211
  H         8.1512584991        5.1564874007        4.5662350181
  H         8.6416731393        4.5561001746        2.9879811977
  C         7.2357890492        6.1903802778        2.8527352479
  C        11.9502999640        0.2094876727        0.7557972033
  C        12.2760477438        2.4308680659       -0.2764571003
  H        14.0963969960        2.3602929399       16.0347367698
  H        13.2522342690        0.9208705331       16.3359868021
  C        12.7906031318        2.5745320544       17.5787916583
  H         6.7042646194        9.3223832496       16.1845493779
  C         6.5005046049        7.8495188170       17.5931091517
  H        14.3446407876        7.1276307595        5.7183756314
  H        15.0209059243        6.6333255565        4.1291545170
  C        15.6809550187        5.4498092783        5.7666348100
  H         6.7234555764        6.7600802643        3.6887435117
  H         7.7568877058        6.8314373227        2.1770586898
  C         6.2472264946        5.2445768298        2.0674005694
  N        11.7743106055       -0.7149036951        1.7918867824
  C        12.1502519482       -0.3880198255       -0.4863113871
  C        12.5354388411        1.8256708998       -1.4939752527
  H        12.2260726182        3.5564162436       -0.2723707686
  H        11.9324634074        2.0062928298       18.0239070346
  H        12.5660341459        3.6089667168       17.5234418643
  H        13.5981655681        2.3764719836       18.2741092630
  S         6.4975218787        6.2530014696       18.1741345991
  C         6.4157517100        8.9448359755       18.5908981403
  H        15.2097091558        4.7699107367        6.4376164438
  H        16.0420657875        4.8686773075        4.9177412901
  C        16.8092039724        6.1332293296        6.5176792148
  H         5.4502793201        4.9847835359        2.7909265859
  H         6.7247494841        4.2637430638        1.7736493350
  C         5.7033581828        5.8892990949        0.8383318155
  S        11.8075644954       -2.1953558173        1.1506673634
  N        12.0378135854       -1.7898489601       -0.3983745131
  C        12.4440554112        0.3606008781       -1.6748990028
  H        12.7099716171        2.5044295748       -2.3289878599
  C         6.2495992312        7.0673782280       19.8057068808
  N         6.2145110253        8.4328966872       19.7677051379
  O         6.4546821225       10.1660515567       18.3592308521
  H        17.3386427133        6.7883862509        5.8082732889
  H        16.3473351901        6.7739536197        7.3114092520
  C        17.6695626716        5.1784950461        7.3080960058
  H         6.4642037500        6.3546304301        0.2152534741
  H         5.1298003743        5.1336602438        0.3122779884
  C         4.7996020428        7.0029764201        1.1645604405
  C        12.6251454988       -0.3444622292       -2.9161584400
  S         5.5439137887        6.1764893814       21.1470332482
  C         6.2712052590        9.1858565577       21.0148529636
  H        17.0802508204        4.7207990385        8.0924753991
  H        17.9632236786        4.3184221410        6.6518170709
  C        18.9612498559        5.8439738818        7.8049560889
  H         4.7493858362        7.2246394901        2.2676137964
  H         3.8222284891        6.9029352016        0.8131606459
  C         5.2241408689        8.2269627262        0.3919598157
  H        12.2097188386       -1.3247169640       -2.8612259521
  C        13.2414309884       -0.0287683475       -4.0724116555
  H         5.9058752587        8.6383740975       21.8531522807
  H         5.4737797430        9.9531618816       20.8914700060
  C         7.6527157905        9.5544012626       21.4138097152
  H        19.3672258966        5.4782092944        8.7159751998
  H        18.7818928046        6.9074778054        7.9375974990
  C        20.0760055611        5.8384820260        6.7543069023
  H         6.1969498582        8.3448270616        0.5721957565
  H         5.0753764601        8.1018961960       -0.5881357494
  C         4.5631334307        9.5814237829        0.9092863927
  S        14.0258765839        1.4631592684       -4.5099385361
  C        13.2293412614       -1.0828592738       -5.1299625450
  H         8.1683910902       10.0697636176       20.6335019716
  H         8.3112348019        8.6886671206       21.6032517711
  H         7.8067280195       10.3023306004       22.2241296357
  H        19.6837019154        6.3539168462        5.9017969717
  H        20.9555944312        6.3856282481        7.0685067004
  H        20.2859144268        4.8090894460        6.4871151699
  H         5.1573289042        9.9894058510        1.6774062561
  H         4.4643017604       10.3367444456        0.1019729261
  H         3.5589130646        9.4421380885        1.2636868727
  C        14.2149820993        0.6808434562       -6.0741449449
  N        13.8626929633       -0.5953732479       -6.2002811983
  O        12.7894299857       -2.1999067205       -5.0021512636
  S        15.2912972592        1.4553684278       -7.2549722395
  C        13.8442795130       -1.2661204822       -7.5297572885
  H        13.8001702933       -2.3544736526       -7.4488407904
  H        14.7775268774       -1.2316162216       -8.1046698897
  C        12.6649975902       -0.7917731897       -8.4900141543
  H        13.0674843618       -0.8054566087       -9.4826021117
  H        12.3545360075        0.2312679133       -8.2491349665
  H        11.7760486180       -1.4426828209       -8.4174198093
  H        -2.2684971475       12.6286181684       17.0877598261
  C        -2.3859609222       13.6241627658       16.7086496862
  H        -1.3409295273       13.9312835077       16.7021338404
  C        -3.1198934185       14.6345861888       17.6040128852
  C        -3.0870289470       13.5090962314       15.4221370334
  C        -3.5085725433       13.9458187978       18.9098544912
  H        -2.5507626620       15.5325611517       17.7595214984
  H        -4.0493354865       15.0302131896       17.1717306197
  H        -2.6373396507       12.6833767590       14.9368087289
  H        -4.1546098740       13.1841609112       15.5288987895
  H        -2.9519047197       14.4779166780       14.9803585700
  C        -2.2959345253       13.3608506268       19.6864027501
  H        -4.2228458846       13.1477239782       18.6815546913
  H        -4.1022828248       14.5822689029       19.6083452465
  C        -2.4033358416       13.2385702243       21.1454398776
  H        -2.1516612752       12.3762026007       19.2829908171
  H        -1.3029035936       13.8274151517       19.4994359373
  C        -1.1983508346       12.5180189363       21.7816025675
  H        -3.2955686695       12.5958095365       21.3480763689
  H        -2.5249009457       14.2253589589       21.6132954796
  C        -0.1893236433       13.6100375381       22.2608255242
  H        -1.5773185918       12.0489271433       22.6853320432
  H        -0.7812068050       11.7788448827       21.0648463548
  C         0.9790991888       13.0761725068       23.0816545776
  H         0.3171767904       14.0479325205       21.3908535472
  H        -0.7085248967       14.3753486612       22.8907141833
  C         1.4912718750       11.7766689969       22.5263991652
  C         0.5541887251       12.4369748178       24.3633048348
  C         2.1093954265       14.1374764016       23.2745507648
  C         1.1458334668       10.7067938238       23.3316002042
  C         2.1139643171       11.3439514692       21.3275519064
  C         0.5796268459       11.0687075988       24.4833571658
  C         0.1581507927       13.0345715781       25.5847985120
  H         2.1990584885       14.6314158865       22.2526229464
  H         1.7012834029       14.9075583168       24.0023819385
  C         3.3336879487       13.4554923847       23.8459441876
  S         1.6401796334        9.1708188148       22.7184806998
  C         2.1249251470        9.9780900258       21.2575037920
  H         2.3038102851       12.0731893719       20.5558026919
  C         0.3056357189       10.4150055338       25.6133292475
  H         0.1492038760       14.1268309093       25.5192395439
  C        -0.1713967795       12.3790247466       26.7308083802
  H         3.9176556834       12.8201680041       23.2071896626
  H         2.9544926626       12.9494707751       24.6646760526
  C         4.4135983818       14.4920438940       24.2324843940
  C         2.6301564465        9.2254792992       20.0921327267
  C        -0.0970794330       11.0074824117       26.8034931511
  H         0.2408685358        9.3821155262       25.6299363648
  C        -0.5556974592       12.7830494212       27.9906668921
  H         5.1383575504       13.9033148301       24.6558884917
  H         4.0979851239       15.1914363961       25.0099764794
  C         5.1041184488       15.2815611837       23.0878422236
  C         2.5552730712        7.8449274744       19.8401530773
  C         2.8506166169       10.0198840012       18.8308841046
  C        -0.6393810692       10.3404696996       28.0198812387
  C        -0.8189201216       11.6841214728       28.7596521309
  S        -0.8404549480       14.3080922921       28.7632716743
  H         5.6946866085       16.0580340978       23.5353946243
  H         4.3051912225       15.7894183077       22.4879142109
  C         6.0162039746       14.4398009899       22.2305759047
  N         2.0680736512        6.9110967301       20.7427871737
  C         2.7494128586        7.2588123247       18.5704109873
  C         3.1864631428        9.4501447645       17.6202510079
  H         2.9003603721       11.0849134571       18.9655641949
  C         0.4089880155        9.4479384333       28.7859583286
  C        -1.9031165981        9.5167695184       27.7213116896
  C        -1.2709400328       12.0646113231       30.0119566796
  C        -1.2174106347       13.4123724012       30.2020421571
  H         6.9480222502       14.9621131910       22.0445290624
  H         6.3087445256       13.4953763265       22.6888959151
  C         5.4714057563       14.1653933846       20.8974117411
  S         1.9934298676        5.4554721406       20.0156509695
  N         2.4852631363        5.8816632649       18.5155405160
  C         3.1788581173        7.9929984757       17.4417603401
  H         3.4360838792       10.0499207656       16.8069200761
  H         0.7314886016        8.5890423430       28.1929330067
  H        -0.2164519701        9.0845411169       29.6917592756
  C         1.7609409060       10.2139067285       29.2305603805
  H        -1.7696711899        8.8005145730       26.9299565754
  H        -2.2427856518        8.9680099044       28.6323358988
  C        -3.0368274894       10.3277243934       27.2749336984
  H        -1.5612227471       11.2956441693       30.6997006664
  C        -1.5565772800       14.1547977064       31.4302338353
  H         5.5569826039       15.0097298317       20.2388868442
  H         4.3634971659       14.0287274032       20.9751645950
  C         5.9043468674       12.8486267835       20.2208504605
  C         3.5020043652        7.2193538409       16.3102081235
  H         1.9944832392       10.9025705500       28.4039111654
  H         1.5606730377       10.7461573335       30.1911623220
  C         2.9558832810        9.3028848949       29.4220315688
  H        -2.7327932850       10.9203332290       26.4115874762
  H        -3.2011127056       11.1414095944       27.9714920428
  C        -4.3752422466        9.5506095264       27.0149394166
  C        -1.6840661716       15.5534753128       31.6119621245
  C        -1.9067319741       13.3497147510       32.6707962060
  H         5.6811246156       12.1454718499       20.8959223836
  H         5.1559201059       12.6577272734       19.5957254236
  C         7.2998247753       12.9209005160       19.6701579702
  H         3.6760132015        6.1132765582       16.5282075011
  C         3.8212046276        7.5792551823       15.0149581053
  H         3.0477335254        8.7424901883       28.4917195369
  H         2.4511145518        8.6346499046       30.1673027316
  C         4.1920812840       10.0548889083       29.8745924851
  H        -4.1254291701        8.8014358399       26.3612589664
  H        -4.5557327882        8.9946030527       27.9250628270
  C        -5.5170843051       10.5188323544       26.5385788060
  N        -1.4984602582       16.5540947324       30.6577601880
  C        -2.1061994631       16.0553692049       32.8269907263
  C        -2.2500608891       13.8536326866       33.9398164133
  H        -1.7999010621       12.3162618249       32.6452860744
  H         8.0572092024       12.2623952215       20.0138425300
  H         7.3461114394       13.1174403822       18.5698544911
  H         7.7217547650       13.8588424196       20.0606540196
  S         4.0493387120        9.1726122745       14.4316038431
  C         3.9181780575        6.5328207572       14.0084546769
  H         4.2631870958       10.9181157029       29.2080286666
  H         4.1569569651       10.6030203990       30.8493567466
  C         5.4141668831        9.2129438668       29.6839888659
  H        -5.1028452136       11.3288721837       25.9721450238
  H        -5.9658448747       10.9771833589       27.3857527600
  C        -6.4973474266        9.7410713646       25.6704377759
  S        -1.7475298798       17.9994407511       31.3507317627
  N        -2.0841186830       17.4502813438       32.8194368695
  C        -2.3164680618       15.3471796958       34.0642389294
  H        -2.4539744252       13.1812065189       34.7684112216
  C         4.4087334561        8.4431237068       12.8131530885
  N         4.2892949329        7.0490032513       12.8055535861
  O         3.7285613128        5.3425919462       14.2472824602
  H         6.3086892584        9.8267972842       29.5219002017
  H         5.3701939984        8.5574075085       28.9030486529
  C         5.6384270587        8.4227716287       30.9142602984
  H        -6.0226679033        9.3612013188       24.7033581588
  H        -6.8026515232        8.8190674455       26.1173382683
  C        -7.6507405948       10.6289950360       25.2533603962
  C        -2.5100925874       16.0989096844       35.2661781523
  S         4.8978836014        9.2414455845       11.3363004976
  C         4.3233979810        6.2251113174       11.5284040799
  H         5.9811412629        9.1742862764       31.6577326757
  H         4.6681822742        8.0093048704       31.3074155788
  C         6.7122347581        7.4348647741       30.8872874759
  H        -7.4001739824       11.2859356383       24.4399663487
  H        -7.9222631400       11.4115154551       26.0087163755
  C        -8.9030271806        9.7883332112       24.9433235827
  H        -2.4236010215       17.1774283767       35.1921321520
  C        -2.9470451726       15.8347566791       36.5653402675
  H         5.2625790410        6.5174652644       10.9193391941
  H         4.2998360435        5.1542828474       11.7060001403
  C         3.0585788249        6.5098129726       10.7244559917
  H         7.5989958094        7.7954429749       31.3264176858
  H         7.0341309755        7.3010615396       29.8578544179
  C         6.2487579773        6.0929282976       31.2419567628
  H        -9.4418584102       10.1941132841       24.0868439321
  H        -8.6223367585        8.7810031144       24.6676385118
  C        -9.8460803455        9.6015591815       26.1928795078
  S        -3.4892329368       14.2693217168       37.1408726472
  C        -3.0761485055       16.9383344042       37.5568837384
  H         2.6250977772        7.5345012501       10.7836359616
  H         3.3099848562        6.4980492285        9.6883181248
  H         2.2593622505        5.7880910923       10.9271119873
  H         5.5064322187        6.0324600424       32.0474157077
  H         7.1002286598        5.4813443865       31.5275467689
  H         5.9398608911        5.6461923683       30.3274027205
  H       -10.0733637604       10.5395830882       26.7486878021
  H        -9.3093906299        9.0193341547       26.9350566356
  H       -10.8540907702        9.1018713622       25.9879275395
  C        -3.8263127949       15.1327831550       38.6215480556
  N        -3.7933435413       16.5128779434       38.5832106065
  O        -2.9224593143       18.1507443022       37.3394922747
  S        -4.7542813808       14.3890021907       39.8788594354
  C        -3.9981138469       17.4689732858       39.7228014627
  H        -4.3737230642       18.4935390513       39.4334759785
  H        -4.8591879441       17.0328025750       40.3351041820
  C        -2.7524529410       17.6407800146       40.6056721470
  H        -2.8125359263       16.9022378639       41.4709689596
  H        -1.7589263123       17.5251984713       40.0592942712
  H        -2.8253698798       18.6488602380       40.9894237951
