352
i=
  H         2.9924609406        1.4401192224       13.8419673353
  C         3.8168326961        1.7757252083       13.1380183747
  H         4.2994023894        0.8558273426       12.7215270146
  C         3.2508371035        2.5506704874       11.8476453685
  C         4.7975127360        2.6032099564       13.8884073167
  C         4.3238182843        2.6109370634       10.6670989875
  H         2.9372595334        3.6017264534       12.0760770775
  H         2.3339928138        1.9986514610       11.5174048774
  H         5.7589140452        2.0815181343       13.9821606799
  H         4.5320531250        2.8433858217       14.9581137542
  H         5.0685822334        3.4341910802       13.2475440913
  C         4.4165975595        1.2706298703        9.9545108144
  H         4.0903909876        3.2574165124        9.8860960615
  H         5.2708242044        3.0345767076       10.9911520277
  C         5.1539393576        1.3632577918        8.5936264635
  H         3.4676210453        1.0389367930        9.5632329847
  H         4.6630449536        0.4320768274       10.5608788862
  C         6.5083261394        2.1890899699        8.5695984756
  H         4.4503968465        1.8594221215        7.8910609579
  H         5.3319107230        0.3572237816        8.1943633026
  C         7.7323111759        1.6030631001        9.2062821597
  H         6.6154168699        2.2848488139        7.4905835450
  H         6.2571421512        3.1289840229        9.0480513123
  C         8.9636220016        2.4125779826        9.3230364267
  H         8.0601045854        0.8100446604        8.6255553690
  H         7.3912617934        1.1318177918       10.1401884819
  C         8.6058579482        3.7520312050        9.9865120497
  C         9.4680600629        3.1098631818        8.1112536670
  C        10.0009274024        1.7890029301       10.2673552511
  C         8.9903092282        4.8744520026        9.2098196296
  C         8.1094411884        4.1014626386       11.2124913716
  C         9.5352500656        4.4385407882        8.0281035027
  C         9.9359075078        2.4705852681        6.9635186576
  H         9.4860302920        1.5604187521       11.1738668308
  H        10.2412229645        0.8065086031        9.7941786727
  C        11.3852117362        2.4951207147       10.4758417328
  S         8.6543112567        6.3618619621       10.0037434063
  C         8.1022534822        5.4626656208       11.4060651824
  H         7.7826198770        3.3288010763       11.8328471689
  C        10.0745164871        5.0528813106        6.9520308275
  H         9.9503089095        1.3958062375        6.9646773977
  C        10.3786295699        3.0772689590        5.8166611863
  H        11.2648323278        3.5360096444       10.7010721141
  H        12.0113935835        2.4647648365        9.5702035936
  C        12.2006404396        2.0614786028       11.6653978180
  C         7.7350439910        6.1707738957       12.7142978216
  C        10.4532881439        4.4104539636        5.7588704386
  H        10.0387401207        6.1488967047        6.9263270937
  C        10.8154443296        2.6606119782        4.5952945796
  H        13.0249124496        2.7769675498       11.7826557074
  H        12.7692025265        1.0445616493       11.4719783947
  C        11.4058943165        1.7877253532       12.9691746658
  C         7.6751483956        7.5219341708       12.9645719769
  C         7.4498368212        5.3728952757       13.9068700822
  C        10.8767255273        5.0877935808        4.4982413080
  C        11.1583618787        3.7546659203        3.8362144051
  S        11.0865750834        1.1327985551        3.8467882715
  H        10.4964208558        2.4128275648       12.9630886143
  H        11.2096768905        0.7353118282       13.0168700307
  C        12.2996679032        2.1784634874       14.1988584663
  N         7.9048385381        8.5394826814       11.9773865580
  C         7.3257899793        8.1267671998       14.2099166680
  C         7.1822652358        5.9539941199       15.1597548647
  H         7.5675538107        4.2644799735       13.8302632988
  C        12.1913697576        5.9265845164        4.6347785893
  C         9.7542652968        5.9027192558        3.8221170178
  C        11.5931593155        3.3053164647        2.5746340566
  C        11.6873798532        1.9182944758        2.4948846121
  H        11.5853652808        2.5861677115       14.8860566848
  H        13.0415226274        3.0348800544       14.0310078168
  C        12.9184478073        0.8736604696       14.7130371961
  S         7.8469541865       10.0574778383       12.6627250269
  N         7.5109290166        9.5186488935       14.1677338821
  C         7.0245497863        7.4056658384       15.3209224706
  H         7.0686325814        5.2546088898       16.0119319089
  H        12.1206778280        6.6918789805        5.3972237876
  H        12.2139727229        6.5564649583        3.7337548529
  C        13.3954866048        5.0589420666        4.8779785445
  H         9.2911893840        6.6237250395        4.5276510188
  H        10.1298425973        6.5673397820        3.0660734897
  C         8.6248365330        5.0410393809        3.2623444438
  H        11.8443558963        3.9508141449        1.7839660500
  C        11.9510993494        1.2456058860        1.1828578094
  H        12.1095479002        0.1064227289       14.9329345503
  H        13.8416787232        0.5230364712       14.1616581515
  C        13.5027698012        0.9700720277       16.0701917676
  C         6.8477192546        8.1595993474       16.5630690240
  H        13.2843926944        4.6730341794        5.8749367372
  H        13.5465211229        4.2384648156        4.2195073235
  C        14.6963063324        5.9312054931        5.0514785589
  H         8.2650250475        4.2870542615        3.9210840996
  H         8.9517464120        4.5257949965        2.3509081996
  C         7.4582429269        5.8830718979        2.8076327850
  C        11.9589506615       -0.1990989237        1.0549416049
  C        12.0800389758        2.0321098038       -0.0057280981
  H        14.3701270906        1.6081951008       15.9594571421
  H        13.7689972292       -0.0345879651       16.3034647362
  C        12.5337313504        1.5048279083       17.1251023277
  H         7.1532690617        9.1767628117       16.5766764100
  C         6.5584247650        7.6634278885       17.7895156150
  H        14.4317308106        6.6683556223        5.9195205023
  H        14.9310570457        6.4907126372        4.1451862889
  C        15.8309814518        5.0229698401        5.3724138691
  H         7.1562955329        6.4423707517        3.6551965236
  H         7.8980042175        6.4634104801        2.0280225247
  C         6.2596179542        5.0480407611        2.2896594976
  N        11.6441665600       -1.1189712716        2.0423652000
  C        12.1675325541       -0.8493393716       -0.1484894342
  C        12.2269386555        1.3582965457       -1.2419161869
  H        12.0024753949        3.1075570980       -0.0496214680
  H        12.6672357041        0.9299664441       18.0167639945
  H        11.5123793801        1.2991642800       16.9317933378
  H        12.6564225840        2.6050980338       17.1859585575
  S         6.1616116624        6.0410811824       18.2192696415
  C         6.5544772024        8.5829949054       18.9353859004
  H        15.6282627188        4.1403096272        5.9976592192
  H        16.2289772477        4.6489817043        4.3888005773
  C        16.9033895794        5.7868866274        6.2294142804
  H         5.6748632877        4.7475922667        3.1622920106
  H         6.5577437246        4.0665212024        1.8206526960
  C         5.3509826879        5.8271320349        1.4799538343
  S        11.7416961568       -2.6708820835        1.4436047319
  N        12.0682802561       -2.2451685214       -0.0421948764
  C        12.3045835364       -0.1436917029       -1.3429318763
  H        12.4408765114        1.9541301515       -2.1470412555
  C         6.1115561974        6.5768514984       19.8983996534
  N         6.2779748554        7.8929930404       20.0442053797
  O         6.6640673490        9.8197108281       18.8792107570
  H        17.5267421091        6.5034669701        5.6703466013
  H        16.3722851607        6.4515363827        6.9324671391
  C        17.7262148335        4.7571881429        6.9110037046
  H         5.9982846478        6.3737541190        0.7695459667
  H         4.5817034517        5.2699565634        0.9229970843
  C         4.4511328649        6.7505818117        2.3190191847
  C        12.6706491748       -0.8624933813       -2.5185424271
  S         5.7428236741        5.7420886383       21.3310958431
  C         6.2824808235        8.6097784031       21.3474494076
  H        17.0603005637        4.0933039295        7.5474237243
  H        18.2082717681        4.1013425812        6.2110042053
  C        18.7722650913        5.4094181017        7.8682617811
  H         4.7706685287        6.7061680996        3.4019055431
  H         3.4125752624        6.3965637807        2.2292939394
  C         4.5327750077        8.1126196509        1.7547242267
  H        12.6374864579       -1.9234926968       -2.4630672389
  C        13.0465147707       -0.5270883041       -3.8196608180
  H         5.3953523205        8.3509617891       21.9069383791
  H         6.1878906982        9.7014377196       21.2790220232
  C         7.6835047347        8.3574749265       22.0853392869
  H        19.0306190148        4.6917519071        8.5812950961
  H        18.2385802363        6.2919903266        8.3731858554
  C        20.1096031799        5.7533430879        7.1420729386
  H         5.5750732216        8.3489051348        1.5421352951
  H         4.2069173825        8.1922203759        0.6958381258
  C         3.7830034039        9.1002173122        2.5690978968
  S        13.7341921187        0.9314053664       -4.3350375679
  C        13.2207135458       -1.6771197182       -4.7469202009
  H         7.4937004891        8.0762944941       23.1059957834
  H         8.2550472575        9.2633935177       22.2339914078
  H         8.3019286832        7.6650869049       21.5876501136
  H        20.7614278342        4.8421934483        7.0648188798
  H        19.8888994950        6.1270244177        6.1459908518
  H        20.7886209820        6.5089369929        7.6286211496
  H         3.9481582718       10.0315012445        2.0044898351
  H         2.6803566250        8.9107448553        2.5548558371
  H         3.9843863474        9.1308350169        3.6282360558
  C        14.0888157283        0.0914557853       -5.8393770485
  N        13.8817855605       -1.2394078895       -5.8756992052
  O        12.9593403779       -2.8522594681       -4.5081678966
  S        14.6376646420        0.7924580102       -7.3180384227
  C        14.0803250838       -2.1724258874       -6.9965821693
  H        14.3618903682       -3.1963768159       -6.7685240924
  H        15.0178829864       -1.8737564099       -7.4867013416
  C        12.8172432474       -2.2234131285       -7.8839658164
  H        11.8606616183       -2.1622392218       -7.3242805320
  H        12.7794811609       -3.1315876185       -8.5237463921
  H        12.8106711425       -1.3643867249       -8.5626426400
  H        -3.4892185602       14.7220988814       15.5330111704
  C        -3.6884524038       13.8467839770       16.1637842162
  H        -4.4881501777       14.0732619462       16.8970695122
  C        -2.4483169746       13.4728788973       17.0552825304
  C        -4.2214380443       12.6742338067       15.3422717548
  C        -2.8388928559       13.1728945979       18.4897199670
  H        -2.0350717637       12.5791140842       16.6859162624
  H        -1.6751578513       14.2133605802       16.9353868265
  H        -4.5883120612       12.0185521114       16.0779986337
  H        -4.9418890250       13.1055401839       14.6163518094
  H        -3.4157634294       12.2680657475       14.7211314302
  C        -1.5817739537       12.7859485331       19.2652960764
  H        -3.6167542021       12.3873660273       18.5256614039
  H        -3.3191632821       14.0504861149       19.0245204999
  C        -1.8501085142       12.7719592870       20.8195520622
  H        -1.2032411032       11.7934190851       18.9169000183
  H        -0.8511368488       13.5628410751       19.1424756064
  C        -0.9273415569       12.0990547376       21.8173948392
  H        -2.7515436086       12.2795606886       20.9240584932
  H        -1.9769460859       13.8218878026       21.2026283186
  C         0.1198957461       13.1262292320       22.3711017505
  H        -1.4299384980       11.7477100308       22.7444259444
  H        -0.5331734443       11.2369176813       21.3331045622
  C         1.3041759250       12.5277310043       23.2598655148
  H         0.6023045427       13.6662568939       21.5553574644
  H        -0.3774006062       13.8711555764       22.9734681468
  C         1.6968270246       11.1970691212       22.5730985940
  C         0.8443388820       11.8390490112       24.4833407782
  C         2.4877504418       13.4613202627       23.5215847899
  C         1.5792857575       10.1291060807       23.4012469995
  C         2.2263587079       10.8568867086       21.3212403634
  C         1.0476135655       10.5284509658       24.5965447974
  C         0.2608707009       12.4407864223       25.6346213442
  H         2.6644951538       14.0347044221       22.6216747327
  H         2.1871750296       14.2173001717       24.2387275983
  C         3.8289324741       12.8619707455       23.8343855019
  S         1.9969744031        8.6611698774       22.6990406360
  C         2.4242138845        9.5249845474       21.1902720895
  H         2.3286576869       11.6923226518       20.6292747362
  C         0.6828645815        9.9022521578       25.7776099261
  H         0.0535248598       13.5078309255       25.6513108399
  C        -0.0239575638       11.7770829547       26.8372848673
  H         4.1615490609       12.3792622042       22.8833385734
  H         3.7281515174       12.2605173955       24.7756358344
  C         4.9784654150       13.8921900963       24.1526058093
  C         2.7777456280        8.8307585111       19.9307081648
  C         0.1373643354       10.4195782918       26.9364494668
  H         0.8745660217        8.8467611820       25.8543205534
  C        -0.3860173183       12.0826864376       28.0974515416
  H         5.7277481532       13.4100463975       24.7516710121
  H         4.6364891334       14.7073361339       24.7164512065
  C         5.6662071785       14.4894194770       23.0038733116
  C         2.7129514258        7.4387983953       19.7108277613
  C         3.1509831095        9.7125206399       18.7192548060
  C        -0.1706363576        9.6109983991       28.1699404105
  C        -0.5893222085       10.9672393261       28.8697268559
  S        -0.6150208298       13.5638369769       28.9486707710
  H         6.2911349877       15.3211990909       23.3780494963
  H         4.8876194129       15.0071016435       22.3566371976
  C         6.5513261625       13.4185878822       22.2983638661
  N         2.2862691025        6.4156561660       20.6363720051
  C         2.9429623013        6.8943514641       18.4304901200
  C         3.3896330582        9.1087855659       17.5216376697
  H         3.5235842141       10.6770559316       18.9258498314
  C         1.0348455229        8.8898223782       28.8620564783
  C        -1.4103880337        8.5874644088       27.8810066669
  C        -0.9177395032       11.3526777494       30.2021210489
  C        -1.0395454930       12.6547252967       30.3832887706
  H         7.5749177866       13.7966294688       22.4201796425
  H         6.4508066569       12.4871401801       22.8630675854
  C         6.2855427865       13.2801440843       20.8497189445
  S         2.3330954063        5.0131432069       19.8159722805
  N         2.9520186910        5.5432422848       18.4339499330
  C         3.1470074195        7.6558062189       17.3163862603
  H         3.7191074199        9.7584484250       16.7244060248
  H         1.1971726768        7.9699831515       28.2754128003
  H         0.6819633424        8.5018407640       29.8342832613
  C         2.2678051643        9.7313398821       29.0715675854
  H        -1.2473640061        8.1241271094       26.9622259314
  H        -1.5056559158        7.8128242715       28.5820827684
  C        -2.7093243946        9.3947841250       27.7565458366
  H        -1.0538620246       10.6098135334       30.9721483362
  C        -1.3735235271       13.3183769274       31.6602259858
  H         5.9868969718       14.2704056172       20.4422808949
  H         5.5149994063       12.5846098897       20.6648996616
  C         7.4552549592       12.8641938782       20.0435508704
  C         3.2812774464        7.0312950186       16.0612419265
  H         2.8619400797        9.7118843607       28.2093583163
  H         2.1415378487       10.8237184751       29.2628055290
  C         3.2103003898        9.1774708370       30.1089430994
  H        -2.4973647624       10.0897028924       26.9593775347
  H        -3.0352969963        9.8581155604       28.6424778056
  C        -3.7704967874        8.4793363626       27.1739201988
  C        -1.4743402375       14.7281400626       31.7750087174
  C        -1.4565122303       12.5066408097       32.8937757930
  H         8.2308215579       13.6930560633       20.2719594541
  H         7.8044553930       11.9245197614       20.3859063177
  C         7.1061821839       12.7207916794       18.5289864938
  H         3.3840372246        5.9642549854       16.0872621968
  C         3.5713724423        7.4293070356       14.7764935327
  H         3.1155616567        8.1197419092       30.2313491091
  H         3.0112243396        9.5916948945       31.0729773004
  C         4.6505140574        9.4584971009       29.6346801984
  H        -3.5172259473        7.9711509728       26.2535328567
  H        -3.8772894139        7.6525573948       27.9081859742
  C        -5.1957472523        9.1441083092       27.0719569805
  N        -1.1857288954       15.7017673253       30.7989209841
  C        -1.6387082488       15.2868876920       33.0329525825
  C        -1.7175757703       13.0880905179       34.1236901402
  H        -1.5279995501       11.4181669404       32.8872588667
  H         6.9896215015       13.6557960160       17.9972674050
  H         7.5971450073       11.9720734794       17.9650991783
  H         6.0793468287       12.3088031803       18.5304514507
  S         3.8807654718        9.0594586365       14.3540485776
  C         3.7048980843        6.4378702882       13.7300957614
  H         4.7092373603       10.1082651909       28.7959730068
  H         5.0651516351       10.0787936118       30.3954741152
  C         5.3625836256        8.1936391924       29.3512548729
  H        -5.2540282583        9.9966714467       27.8126160476
  H        -6.0009620666        8.3868212907       27.3843692732
  C        -5.4649768755        9.6715584233       25.6974420109
  S        -1.3790546017       17.1926997816       31.4305824429
  N        -1.6882411364       16.6953797844       32.9870824880
  C        -1.8648716835       14.5674416090       34.2329946892
  H        -1.6534633542       12.4557238850       34.9833556361
  C         4.1655725796        8.4478570933       12.7376479194
  N         4.0997414933        7.0995837385       12.6326748777
  O         3.4512928500        5.2342611605       13.8418932065
  H         6.1479006056        8.3459928232       28.6824666554
  H         4.6762835159        7.6110531027       28.7613177462
  C         5.7066197360        7.4942656737       30.6378449779
  H        -4.7748311051       10.4731485596       25.6451259758
  H        -5.1027600969        9.0080944033       24.8860194788
  C        -6.9156102711       10.1995910101       25.5486995353
  C        -2.2680549572       15.2811025271       35.3977854261
  S         4.6551983022        9.3870837975       11.2968741354
  C         4.1917188399        6.4051292155       11.3696529286
  H         6.0783014640        8.2527098623       31.3994975519
  H         4.8086518301        7.0385308953       31.1821108814
  C         6.8246585835        6.5596068956       30.4340154601
  H        -7.0973215640       10.7684831110       24.6125795391
  H        -7.1350907502       10.9124613638       26.3461441661
  C        -8.0183704377        9.0954899106       25.5493450272
  H        -1.8718462714       16.2622048567       35.4752751877
  C        -2.8972089982       14.8829693339       36.5316456437
  H         4.9616153932        6.8817198172       10.7660617234
  H         4.7241839368        5.4462143504       11.5441627394
  C         2.8258292684        6.1911643826       10.7107337124
  H         7.7666528819        7.0877763470       30.5668726807
  H         6.8636197737        6.0278963915       29.4603708391
  C         6.8698988502        5.6071512822       31.6526395227
  H        -7.8659325359        8.3797270136       24.7470844276
  H        -8.1203681977        8.5619398616       26.5086763781
  C        -9.4424288730        9.6483892666       25.3071868462
  S        -3.5994600479       13.3058159826       36.7318982567
  C        -2.9155185038       15.8565886855       37.6482761905
  H         2.8089244969        6.7137860117        9.7456798952
  H         2.7471212463        5.1286330144       10.5071370246
  H         1.9552346622        6.5756897399       11.2958313396
  H         5.9399487310        5.4083651513       32.2000414950
  H         7.5033202294        5.9741647610       32.4620691172
  H         7.2535478381        4.6375720841       31.3199410974
  H        -9.6931719499       10.4455888738       25.9788013549
  H       -10.0595063224        8.7859065383       25.3870732239
  H        -9.5436507792        9.9720908619       24.2988266995
  C        -4.2231112824       14.0694419990       38.1969706600
  N        -3.8673491832       15.3763176268       38.4961978476
  O        -2.5547436987       17.0522818746       37.6098986493
  S        -5.1682628771       13.1705119753       39.3784402274
  C        -4.1408313255       16.0569874128       39.7572876588
  H        -4.2056603554       17.1290340769       39.5560962489
  H        -5.1648412357       15.8149782935       40.1988315135
  C        -3.0920482311       15.7442498266       40.8499564332
  H        -2.9906347985       14.6691688783       40.9789932304
  H        -2.1546697652       16.0412812629       40.3823367842
  H        -3.1706876215       16.2747431676       41.7799073031
