352
i=
  H         4.7026075412        1.3616833236       12.2254044488
  C         4.0346949564        2.1205800564       12.3664562743
  H         4.6037447240        3.0100834649       12.3531109363
  C         3.0111115076        2.1669081967       11.3364865169
  C         3.3287417497        2.0268640400       13.6603643034
  C         3.7079346822        2.3448471046        9.9736161561
  H         2.3947985312        3.1675937129       11.5693462632
  H         2.2923890357        1.3405469718       11.3557721553
  H         2.4246277560        1.4502532419       13.6573864350
  H         2.6594264681        2.8201407883       13.9584471637
  H         3.9026753670        1.5145380404       14.4313783746
  C         4.4642097278        1.1112466255        9.4541802411
  H         3.0874265781        2.7017162994        9.2143452114
  H         4.2953636923        3.2051290613       10.1830759426
  C         5.1694630495        1.4549818673        8.0343175598
  H         3.8505347626        0.2838339290        9.2929378655
  H         5.3513810702        0.8607764718       10.0633708694
  C         6.5516475280        2.3270930778        8.2551093826
  H         4.4574558842        1.7623837242        7.3251151112
  H         5.5549907600        0.5499619102        7.6462441952
  C         7.7999966658        1.6730252919        8.7272046195
  H         6.6931323407        2.7176211977        7.1806885398
  H         6.3352942396        3.1677776889        8.8549558083
  C         9.0576398849        2.5189681871        8.9192790173
  H         8.1844510667        0.9146398738        8.0076002853
  H         7.5449224426        1.0382080940        9.6256640403
  C         8.6525300766        3.8422712153        9.6508651065
  C         9.5381418179        3.2701646872        7.6893780991
  C        10.2237535924        1.6885845895        9.6660275373
  C         8.9676081671        4.9996447584        8.9366462866
  C         8.1169328561        4.1269130198       10.8934939506
  C         9.6160624543        4.6320436079        7.7361528341
  C         9.9661923366        2.7181941363        6.4696944261
  H         9.7887697244        1.2592581657       10.5282393927
  H        10.5465441944        1.0631534027        8.8720178783
  C        11.3840967196        2.5860540180       10.1384400273
  S         8.4101913687        6.4612044826        9.7259594782
  C         8.0134056938        5.5036678357       11.0511622151
  H         7.7134602695        3.4772763136       11.6066804991
  C        10.0996558064        5.3170210960        6.6390116786
  H        10.0053429821        1.6822473741        6.3137799032
  C        10.4454070510        3.4479634245        5.4605359364
  H        11.1058694061        3.5219226231       10.5289431697
  H        11.9751049368        2.8764897301        9.2421464615
  C        12.3498653227        1.9507568829       11.1230602797
  C         7.5924730714        6.2268333008       12.3285943050
  C        10.5414961430        4.7796082640        5.4621191116
  H        10.0468781958        6.3469221707        6.7015472064
  C        10.8512285826        3.0406399302        4.1279028954
  H        13.1482633447        2.5401442520       11.0166299315
  H        12.6760324828        0.9853855662       10.9404238387
  C        11.7585723050        2.1211217613       12.4853070818
  C         7.6309714401        7.6153127761       12.5982187291
  C         7.1931829905        5.3522213996       13.5181155864
  C        10.9791650096        5.5262072724        4.2079549980
  C        11.1682689114        4.2049818280        3.4225192659
  S        11.0896176494        1.5890789623        3.3787878857
  H        11.5485284215        3.1217063299       12.5889527791
  H        10.9126402198        1.5138077920       12.7406234547
  C        12.8267173194        1.8201508542       13.5599695205
  N         8.1799781058        8.5766551033       11.7556605448
  C         7.3894851167        8.1136121998       13.9358817577
  C         6.9453810409        5.8653770586       14.8122857797
  H         7.0495247761        4.2895457240       13.4046100829
  C        12.2210383463        6.3897009986        4.3512872295
  C         9.7720524014        6.2411096812        3.5933785620
  C        11.5068627163        3.7724037029        2.0531127149
  C        11.4236323675        2.4455182327        1.9343209279
  H        13.7181880271        2.4169847725       13.6234705733
  H        13.1453488901        0.7909538567       13.4627332524
  C        12.2558035258        2.1438140809       14.9231214196
  S         8.0027391843       10.0552969758       12.4583551874
  N         7.5447628497        9.5125553554       13.9693367250
  C         7.0289924284        7.2905184716       15.1038625503
  H         6.5448069180        5.1062346798       15.5355160446
  H        12.0774958309        7.1555246833        5.1102230652
  H        12.3362585271        6.9786636120        3.4976655830
  C        13.6378598753        5.6788979203        4.5938683832
  H         9.3665123425        6.7725437910        4.3947887656
  H        10.1773091177        6.9896943224        2.8779935437
  C         8.6317366824        5.4143614992        3.1431375346
  H        11.6759602779        4.5504065373        1.3348752867
  C        11.7172285197        1.7029555765        0.6826845423
  H        11.8096010713        3.0928451188       14.9648717688
  H        11.4557336285        1.4476804212       14.9407966322
  C        13.1988282183        1.8066041998       16.1492286586
  C         6.8253362789        7.8601025199       16.3780002816
  H        13.5829634552        4.9476558368        5.5113161965
  H        13.8547345692        5.1073782324        3.6789439752
  C        14.7435754502        6.6193062283        4.9210322994
  H         8.2080122684        4.6000820216        3.8958399437
  H         8.9619353247        5.0470439343        2.2026438821
  C         7.4027293058        6.3587825734        2.9247365683
  C        11.8616228639        0.2486149890        0.5038462756
  C        12.1185210875        2.4359959528       -0.5765575164
  H        14.1876864473        2.4114679217       16.1405793410
  H        13.3111653774        0.7310180387       16.0507094771
  C        12.6198358372        1.8721078308       17.5468490892
  H         7.3198764526        8.8137091655       16.4851933243
  C         6.4069541068        7.4648252150       17.6586572969
  H        14.4897796164        7.1788284874        5.9019329875
  H        14.7961369367        7.2350629599        3.9924380736
  C        16.0980768369        5.8523853088        5.1546397192
  H         6.7841000408        6.5539574832        3.8065149013
  H         7.9135796174        7.2661090560        2.5705600316
  C         6.4398419268        5.9034905390        1.7779514553
  N        11.5450557798       -0.6140203935        1.5325773094
  C        12.2490253248       -0.3653441140       -0.6094886117
  C        12.3847208423        1.7985177881       -1.8334498887
  H        12.0158884620        3.5086615376       -0.4011843794
  H        11.6000622146        1.4519253692       17.5921264469
  H        12.3924498190        2.9671719086       17.8212017855
  H        13.2825631308        1.5948877702       18.3549457419
  S         5.9465756908        5.8282316905       18.0466233909
  C         6.2769432646        8.4850938691       18.6916367912
  H        16.0406899431        4.8326589611        4.8615526829
  H        16.9690239175        6.2747862842        4.5703314091
  C        16.4947579311        5.9094670423        6.6880368697
  H         6.1966563491        4.9125431285        1.8020723245
  H         6.9481772644        6.0686964329        0.7827004539
  C         5.1135799331        6.6215288923        1.8110043035
  S        11.7296159833       -2.1573256757        1.0208892323
  N        12.3023045604       -1.8167426193       -0.4600482759
  C        12.5754863253        0.2593139509       -1.7981853486
  H        12.3065731477        2.3191206670       -2.7964913761
  C         5.7647619809        6.4832669262       19.6989602563
  N         5.9323807131        7.8158656496       19.8515129709
  O         6.5677542794        9.6665511276       18.4968576134
  H        16.5760996570        6.8692200209        7.1905673935
  H        15.6425531021        5.4543832682        7.2921078737
  C        17.7091753710        5.0979169269        6.9695748090
  H         4.3236954518        6.0623611121        1.2831150477
  H         4.8048171297        6.8294728085        2.8471326032
  C         5.2940752764        7.9963210808        1.1085582617
  C        12.7900865176       -0.5418994987       -2.9999060808
  S         5.2027961579        5.5369416352       21.1254770856
  C         5.8088890418        8.6292537263       21.0886873238
  H        17.6110891646        4.9035760611        7.9832632804
  H        17.8301819169        4.1950127311        6.4761558580
  C        19.0218662121        5.9757675596        6.8873643104
  H         5.1953170839        7.6827155945        0.0161062428
  H         6.2395795093        8.4834239399        1.2347460190
  C         4.1936728127        9.0592152233        1.3908603185
  H        12.6585801854       -1.6058875378       -2.8088225632
  C        13.2833717448       -0.1438735817       -4.2380466557
  H         5.1150736743        8.1963719625       21.7774476347
  H         5.4449204523        9.5553596239       20.6309080146
  C         7.1757126952        8.8581154906       21.8078058316
  H        19.6515120214        5.9604628520        7.8413787310
  H        18.8296718571        6.9296051346        6.5472489979
  C        19.9013742918        5.4502913014        5.7782381846
  H         3.1498085118        8.6637376945        1.3780834242
  H         4.4772552187        9.6064991108        2.3077807419
  C         4.3478721606       10.1235518380        0.1979197035
  S        13.8362790786        1.3724562931       -4.7995232277
  C        13.5429775172       -1.2448471221       -5.1847293902
  H         6.9835555949        8.9471745897       22.8691449192
  H         7.7101683125        9.7869861658       21.4409337141
  H         7.6741005029        7.9990280119       21.6761915940
  H        20.8136564871        6.0389590463        5.7418498212
  H        20.1597722012        4.3315838114        5.9155217192
  H        19.3850677528        5.5588631581        4.7937561329
  H         3.6559428553       10.9667614803        0.3324497336
  H         5.4002561874       10.4199559533        0.2025035195
  H         4.1138626912        9.5578736858       -0.7264960457
  C        14.2128991625        0.6219389994       -6.3214526067
  N        14.1529594682       -0.7950682879       -6.3170927443
  O        13.0929966414       -2.3902374153       -5.0043566409
  S        15.0998983472        1.5197555753       -7.5839511383
  C        14.4016764173       -1.6364609006       -7.4415649237
  H        14.6415763178       -2.6575249421       -7.1704146107
  H        15.2319463829       -1.2449913130       -8.1202237512
  C        13.0669604528       -1.8668772565       -8.1766727168
  H        13.1017435640       -1.7240199413       -9.1447268511
  H        12.2336797247       -1.5866854901       -7.6786004501
  H        12.8417143784       -2.8884951784       -8.1211073828
  H        -4.0807264396       14.5275865000       16.3121828820
  C        -3.8518746335       13.4634688780       16.2820939117
  H        -4.6263635712       12.7535670689       16.6834207337
  C        -2.6278497534       13.6067474941       17.2313544318
  C        -3.4498354614       13.0286901458       14.8932148042
  C        -3.0070217581       13.7554170219       18.6688042184
  H        -2.2174306205       12.5834928583       17.1347428841
  H        -1.9360636153       14.3612133294       16.8491811534
  H        -4.2735688681       12.9516119548       14.2594853201
  H        -2.8209192086       13.7486977555       14.4159202907
  H        -3.0061097829       12.1064871186       14.9951226540
  C        -1.8396910316       13.6749067433       19.6567584797
  H        -3.6527153409       12.8692777474       18.7359165626
  H        -3.5979133338       14.6391890523       18.8569151556
  C        -2.3485073330       13.6024748308       21.0733032226
  H        -1.1642040349       12.9658232453       19.4495317490
  H        -1.2694429413       14.5381781381       19.6170110069
  C        -1.3234986993       12.9832344038       22.0485074355
  H        -3.2782795508       12.9948842712       20.9609807149
  H        -2.6854991139       14.5367969409       21.1926377909
  C        -0.0455876536       13.8181780476       22.1769684010
  H        -1.8197721458       13.0771116018       23.0631310297
  H        -1.1755283214       11.9689106478       21.7016484511
  C         1.0716682927       13.1102245013       23.0674422325
  H         0.4483357279       14.2046796158       21.2857464925
  H        -0.2827231468       14.7733596256       22.6544098058
  C         1.4208345275       11.7731301710       22.4330329977
  C         0.5858796276       12.4050002487       24.3419323495
  C         2.4053916907       13.7990164274       23.2335973838
  C         1.1785692426       10.6702877250       23.2451135894
  C         1.9705454366       11.4343427029       21.2247844919
  C         0.5310703186       11.0389222377       24.3679299154
  C         0.2481957000       13.0021838029       25.5588414249
  H         2.7488911358       14.0798032288       22.2551353158
  H         2.2789215543       14.5867495982       23.8986208487
  C         3.5589004573       13.0030918760       23.8402683576
  S         1.5695226890        9.1598073877       22.5601586218
  C         2.0779804451       10.0261335541       21.0975459090
  H         2.2016983439       12.3337021856       20.6746514803
  C         0.0809493727       10.3830687187       25.5359683857
  H         0.3877201732       14.0222485047       25.5473685159
  C        -0.2523898300       12.3776204478       26.6486499255
  H         3.9745593506       12.2486027396       23.0815616727
  H         3.3616767336       12.4534508211       24.7144661985
  C         4.9292896119       13.6420028109       23.9618753578
  C         2.4394283595        9.2395125536       19.8960698491
  C        -0.3407291544       11.0319074968       26.6203842938
  H         0.2852113621        9.3249360422       25.5303233545
  C        -0.6739722184       12.7633568995       27.9497279716
  H         5.5224524268       12.9988716290       24.5595392501
  H         4.7189760862       14.5453154874       24.3544353164
  C         5.5710597767       13.8592163027       22.6709580601
  C         2.4670513218        7.8692037676       19.6327540227
  C         2.7928492436       10.1045342618       18.6964888052
  C        -0.5614778392       10.3583863584       27.9407130620
  C        -0.7745122054       11.6264422192       28.7457175319
  S        -0.7766501509       14.2850978159       28.7648217253
  H         6.2038804884       14.6831089726       22.7758072417
  H         4.9856517312       14.2857292073       21.9141042727
  C         6.4475107257       12.6906275671       22.1697897625
  N         2.1329472301        6.8678279707       20.6050488974
  C         2.6970687852        7.2702505676       18.4274809059
  C         3.0954312681        9.5217596827       17.5173973126
  H         2.8495699265       11.2094857685       18.9271143751
  C         0.4442917702        9.5398375003       28.6513215339
  C        -1.8592602016        9.4807058852       27.7436255333
  C        -1.0324297549       12.0205659679       30.0541397997
  C        -1.0967601858       13.4038083928       30.2341285916
  H         7.1325059152       12.4946442425       22.9199814433
  H         5.7490154363       11.9794536206       22.0028798031
  C         7.1314825294       12.8629604008       20.8020239664
  S         1.9970613747        5.3812449120       19.8603347148
  N         2.4763455763        5.8923458682       18.4311795081
  C         3.0514899552        7.9786135630       17.3533459461
  H         3.2827742458       10.0991125522       16.6413017201
  H         0.7172289182        8.8326585222       28.0228377120
  H        -0.0796706510        9.0375749901       29.3974262406
  C         1.6344749975       10.2293361470       29.3104679880
  H        -1.6616499356        8.7798087198       26.9498742202
  H        -1.8741947479        8.8325961276       28.6338056856
  C        -3.0965330083       10.2631569276       27.5408310181
  H        -1.1273964669       11.2327040669       30.7460755725
  C        -1.5199935779       14.1396805528       31.5289606191
  H         7.9252478442       12.1168608555       20.4616906562
  H         7.7165150646       13.7238873256       20.7655503900
  C         6.1278699396       12.8833848200       19.6619470872
  C         3.3032421730        7.3496092574       16.0604548450
  H         2.0523005982       10.7584428599       28.4887713966
  H         1.4352366486       11.0995121879       29.9731253430
  C         2.6919953780        9.3461172592       29.9778234488
  H        -3.0412700828       11.0186836607       26.7596577356
  H        -3.3561989319       10.7904042585       28.4601314863
  C        -4.3956230553        9.5144725799       27.2965318977
  C        -1.6018338701       15.5078550680       31.5620299610
  C        -1.8149925049       13.3520813052       32.7275332376
  H         5.3397043587       12.1405647829       19.6311217061
  H         5.7030488185       13.8016521275       19.7518735859
  C         6.9162425483       12.9165574594       18.3532699431
  H         3.0585331727        6.2919108785       16.2044219810
  C         3.7658595761        7.7533509627       14.7964011472
  H         3.1306631949        8.6390628720       29.3310463834
  H         2.2039684342        8.8417073699       30.8329238553
  C         3.7138215689       10.1955844773       30.6394213915
  H        -4.3260228187        8.6266227459       26.7892906110
  H        -4.6862831401        9.2999846976       28.2407530385
  C        -5.4467340354       10.4448072006       26.6587179813
  N        -1.3996132363       16.3972879570       30.5699466549
  C        -1.8800033485       16.0968647282       32.8134057846
  C        -2.1340696518       13.9904709137       33.9539031656
  H        -1.4451163310       12.3021819871       32.5906452231
  H         6.1568466061       12.9569985018       17.5564790272
  H         7.4948893996       13.8098328024       18.2309488085
  H         7.5683841877       12.1647522980       18.4279701770
  S         4.1579154656        9.4189146283       14.3760959190
  C         3.7899852381        6.7896162337       13.6882282232
  H         3.8996140366       11.1543536901       30.1547415328
  H         3.5535849737       10.2703463408       31.7466927241
  C         5.1456664954        9.6175523402       30.5708851031
  H        -4.9479901274       10.7435162949       25.7127819431
  H        -5.3706393061       11.2490493441       27.3228015191
  C        -6.9016980936       10.0626360689       26.6989641908
  S        -1.5866835099       17.9847246971       31.1927983100
  N        -1.8809402991       17.5249062265       32.7228600006
  C        -2.2657230617       15.4692099396       34.0070102265
  H        -2.5030661536       13.3949223530       34.8509247201
  C         4.1661100801        8.7696861000       12.7472122653
  N         4.0578153086        7.4230263451       12.5674881686
  O         3.6296056235        5.5945522220       13.8259583769
  H         5.7762423053       10.4825516626       30.9624653648
  H         5.3909090181        9.5593614246       29.4840392291
  C         5.2485478121        8.2840542054       31.1949410225
  H        -6.9086660356        8.9920376072       26.6022773348
  H        -7.4713420970       10.1951461384       27.6468711986
  C        -7.6442425384       10.7350191559       25.5296680026
  C        -2.6173396898       16.1914098732       35.1592155649
  S         4.4052399165        9.5574049721       11.2403870039
  C         3.9959312393        6.6225113071       11.3266105888
  H         5.7394270146        8.4493523924       32.1470754289
  H         4.2979048035        7.9483718318       31.2753760444
  C         5.9995230603        7.3346396988       30.3395065618
  H        -6.8650205284       11.0612541816       24.8068572906
  H        -8.0390040908       11.6070964756       25.9099151005
  C        -8.7202384754        9.9106169465       24.8131842011
  H        -2.4663327191       17.2687088293       34.9752426840
  C        -2.9626384513       15.8387263388       36.4117019576
  H         4.5425313291        7.0461746531       10.5764103219
  H         4.2241256161        5.6375762842       11.5564548308
  C         2.5701061086        6.5217219928       10.8579617701
  H         6.9974030751        7.4091903691       30.5998660170
  H         5.9097555912        7.4579868264       29.3559192768
  C         5.7194962219        5.9280201933       30.6038772031
  H        -8.9475141762       10.3267605366       23.9373706953
  H        -8.5290068888        8.8808007018       24.6563871289
  C       -10.0874996111        9.7756959944       25.6586122742
  S        -3.3334086810       14.2301062261       37.0015010992
  C        -3.1247346368       16.8975423105       37.4832169686
  H         1.7211832623        6.5471968835       11.6033948401
  H         2.3760131632        7.4794590420       10.2412994008
  H         2.2460408806        5.7284986994       10.1308774425
  H         4.8437678931        5.4749712631       30.1950537175
  H         5.6920380522        5.7104420533       31.7063047858
  H         6.4961734223        5.3310299586       30.1342479635
  H        -9.8754369041        9.6087804907       26.7905461476
  H       -10.6886758310        9.0079658015       25.1943311991
  H       -10.7660115762       10.6601630091       25.6148572546
  C        -3.6782909770       15.0365829829       38.5151843776
  N        -3.6521633176       16.3549098197       38.4957172637
  O        -2.8448565698       18.0564666216       37.1963978484
  S        -3.9651052535       14.1620836070       40.0325094901
  C        -3.7728992221       17.0996696222       39.7351804006
  H        -3.9100526826       18.0506508836       39.3281988675
  H        -4.7161904147       16.8589630001       40.0999288688
  C        -2.5807560033       16.9793454644       40.6478435079
  H        -2.7428878063       16.4048858437       41.5297692314
  H        -1.7786432030       16.5404346038       40.1600833776
  H        -2.1215645749       17.9255385687       41.0630783022
