352
i=
  H         1.9231707696        2.0068531292       12.1838580641
  C         2.9009708725        2.4574501607       12.4379987170
  H         3.5760191909        1.6039822236       12.4548116998
  C         3.1726978930        3.4360983302       11.2802214976
  C         2.8316266540        3.1134948390       13.8170227336
  C         4.4158819870        3.3421666847       10.3526851507
  H         3.1702381177        4.3947796614       11.7107713558
  H         2.2380795377        3.3805057122       10.7965164388
  H         2.5129641913        2.4584907476       14.6372061842
  H         2.1998354262        3.9762077465       13.7471162971
  H         3.7858517875        3.5420357548       14.0618688866
  C         4.6632966275        2.0515092236        9.6056613218
  H         4.1183384834        4.0189993169        9.5726653709
  H         5.2215983882        3.6721334839       10.9115628353
  C         5.4059661883        2.1819493406        8.2505932861
  H         3.6463642240        1.6036476762        9.6377111215
  H         5.1920104373        1.2653718665       10.1259917861
  C         6.7852527365        2.8669264300        8.3246187326
  H         4.9208764076        2.6510107448        7.4462926071
  H         5.5388784659        1.1821262623        7.7952501970
  C         7.8999569129        1.9960341406        8.8780723851
  H         7.0644691032        3.3294452146        7.3581717082
  H         6.6765720718        3.7894918431        8.8757424053
  C         9.1447515749        2.8026304676        9.1203488644
  H         8.2510795460        1.1192791268        8.3435075920
  H         7.5392781044        1.6036723011        9.7789402764
  C         8.8820479021        4.1659862152        9.8352565057
  C         9.6079895986        3.5168991490        7.9073790500
  C        10.2689324146        2.0999515586        9.8051840700
  C         9.2054157092        5.2803717373        9.0973059141
  C         8.3004757768        4.6203810561       11.0581891478
  C         9.6338365695        4.8961154270        7.8734190188
  C        10.0350051986        2.8974373925        6.7839593561
  H         9.8883835487        1.4554587790       10.5917098927
  H        10.6792007578        1.4438981933        9.0728180840
  C        11.3291355610        2.9015037951       10.3748557908
  S         8.9306872141        6.7842866261        9.8741975902
  C         8.2575801968        5.9615878245       11.2732679603
  H         7.9774462943        3.8480914047       11.7799502906
  C         9.9331342727        5.5858819699        6.7465048248
  H        10.0128049944        1.8179805981        6.8107218336
  C        10.3441859084        3.5547711461        5.6500565587
  H        10.9187196537        3.6485511783       11.0183575210
  H        11.8264194647        3.5566218634        9.6354566698
  C        12.4048013779        2.1188976429       11.1815327345
  C         7.6685727607        6.6037736300       12.4770350279
  C        10.3660382554        4.9193196696        5.5531581051
  H         9.7781841575        6.6333099297        6.6701407366
  C        10.7158723676        3.1626528257        4.3742580775
  H        13.4091818317        2.6206928523       11.1015969354
  H        12.5137701552        1.1106661850       10.7992934140
  C        12.0930333794        1.9241326603       12.6619519903
  C         7.8285964097        7.9543347448       12.8234787811
  C         7.0903321917        5.7800652631       13.5620716016
  C        10.6752263003        5.5928021200        4.2304197037
  C        10.8229698973        4.2428194063        3.5293808328
  S        11.0274066604        1.6826602053        3.5881424227
  H        11.4488576598        2.7231591090       13.0783382801
  H        11.5924320286        0.9591868613       12.7116410306
  C        13.3757537749        1.8627737904       13.4875101832
  N         8.2780533469        8.9994183685       11.9180150092
  C         7.5826016343        8.4813780155       14.0956236850
  C         6.8497088332        6.3290428295       14.8299459520
  H         6.7645319973        4.7419207543       13.3910191452
  C        11.9917057945        6.3356950504        4.3497425695
  C         9.5436699966        6.4734595175        3.7042678894
  C        10.9892892210        3.8582425808        2.1511553785
  C        11.2282400042        2.4981609342        2.1040961140
  H        13.8643238110        2.8509343169       13.5247517772
  H        14.1306411273        1.2015751560       13.0728568854
  C        13.0803640751        1.4635583615       14.9056221025
  S         8.2452967499       10.4170130816       12.7228546051
  N         7.7866260724        9.8270776967       14.1610967492
  C         7.1867095221        7.7183438623       15.1997206217
  H         6.3499357507        5.6703953500       15.5393577352
  H        11.8040776103        7.0946646811        5.0111604448
  H        12.2939299976        6.8136121947        3.3944701586
  C        13.1233534048        5.4339614408        4.9028415035
  H         9.3990125354        7.1796323919        4.5055239091
  H         9.8664459288        7.0084578886        2.8254766529
  C         8.2719414371        5.6737897819        3.2768630972
  H        11.1463044502        4.6087301461        1.4051247181
  C        11.5928754824        1.7207408810        0.8384108527
  H        12.4756216182        0.5195028924       14.8542537820
  H        14.0537728633        1.2797468956       15.3480169945
  C        12.2711794257        2.5014921410       15.7085643217
  C         7.0607111883        8.3750083332       16.5014932392
  H        12.7453829150        5.0437182698        5.8543452099
  H        13.4195252616        4.6442700002        4.2456716748
  C        14.4522619622        6.1341506638        5.0530380888
  H         7.7860110924        5.1821767476        4.1565908339
  H         8.5360486506        4.9069598733        2.5563636777
  C         7.1732181894        6.5242999431        2.6005822150
  C        11.5503269621        0.3312138699        0.6078089257
  C        11.8734743087        2.5078117283       -0.3710851236
  H        11.2353113066        2.3243976601       15.8947890721
  H        12.2625690675        3.4245855932       15.0806166711
  C        12.8869968792        2.6808437361       17.1074068854
  H         7.2675991102        9.4327616100       16.4749254393
  C         6.6044011411        7.9182084695       17.7251509982
  H        14.3068349369        6.9809328161        5.7072840855
  H        14.7257873589        6.6408819196        4.1335006561
  C        15.6959258152        5.2323849575        5.4039260656
  H         7.0687741942        7.4615919066        3.1041909078
  H         7.5651979889        6.9505467839        1.6670052195
  C         5.8154784275        5.8326229103        2.4323961513
  N        11.5064323444       -0.6340460116        1.5986900043
  C        11.9285218206       -0.3166648840       -0.5223584490
  C        12.1986560698        1.9017415798       -1.6105723387
  H        11.7448458313        3.5917834591       -0.2889128240
  H        14.0566240845        2.7984783990       17.1512362460
  H        12.6728769390        1.9688089812       17.8822350337
  H        12.5786011869        3.5604757749       17.6576670180
  S         6.0426977791        6.2995677697       18.1526387935
  C         6.5871198398        8.8708466212       18.8506490454
  H        15.3851474256        4.4720997977        6.0727812385
  H        15.9160737796        4.7778584605        4.4129331319
  C        16.9362583244        5.8734579271        5.8161208770
  H         5.4483762054        5.7007801260        3.4282592462
  H         5.9175991737        4.8290231503        1.9820748481
  C         4.8718343965        6.6762000696        1.5537701017
  S        11.5068688742       -2.1303438475        1.0043925236
  N        11.8201538318       -1.6465397935       -0.5217444096
  C        12.2308162015        0.4151954647       -1.6812197506
  H        12.4134508178        2.5902063032       -2.4246687499
  C         6.1288727494        6.8799540648       19.8192567181
  N         6.2376779261        8.2239248248       19.9611517037
  O         6.8073400281       10.0421331174       18.7126463020
  H        17.5023273254        6.2341450720        4.9754854410
  H        16.6738762629        6.7337958921        6.3654940853
  C        17.8641270816        4.8996090443        6.7251333786
  H         4.8822931674        6.4347763009        0.4854856036
  H         3.8985494949        6.3269905134        1.8746334710
  C         4.8900420264        8.2424708669        1.8045870826
  C        12.5044689575       -0.3067064824       -2.8412202483
  S         5.7717852305        5.8785050977       21.1908851745
  C         6.1159072542        8.8987473111       21.2768071078
  H        17.3459869844        4.5433684040        7.6135653305
  H        18.0831132203        3.9612162549        6.1762920154
  C        19.2075929250        5.5943453834        7.0169258105
  H         5.8526421315        8.5801655182        1.3435916055
  H         4.9566811094        8.6015260156        2.8545853889
  C         3.9115532738        9.0626464416        1.0451732578
  H        12.1019870830       -1.2754696720       -2.7995047988
  C        13.0729677945        0.0267523424       -4.0467364153
  H         5.4425431913        8.4673619668       21.9955161661
  H         5.8590169765        9.9603995711       21.0156094306
  C         7.4916916688        8.7603671471       21.8994985675
  H        19.7700293965        5.3400469797        7.8532321147
  H        18.9134899092        6.6694731618        7.1528581278
  C        20.1285915575        5.4641838908        5.7832477190
  H         3.8435539884        8.8149305047        0.0376943724
  H         2.9293440007        8.7690801675        1.4278610406
  C         4.2767607885       10.5534681185        1.2156713654
  S        13.7875071076        1.5142360214       -4.4689640894
  C        12.9889077029       -1.0313419922       -5.1607308219
  H         7.9472460168        9.7412087904       22.0181798129
  H         8.1706297662        8.1474501704       21.3214514782
  H         7.3643373272        8.4039596171       22.9416535639
  H        21.0752029137        5.0849690059        6.0413332079
  H        19.6653406471        4.8096108229        5.0605104898
  H        20.3255738781        6.4430582045        5.3025150206
  H         3.9091032204       11.1341466674        0.3723449759
  H         3.8547926984       11.0079496669        2.0592610930
  H         5.3153957904       10.7628775213        1.0449070982
  C        14.0983353124        0.8104214187       -5.9541492214
  N        13.7684273662       -0.5295623297       -6.1247096830
  O        12.5065154448       -2.1778171923       -4.9912113349
  S        15.1328227236        1.5142088865       -7.2240378256
  C        13.9060201023       -1.2451391678       -7.3725351368
  H        13.9843653927       -2.3092757468       -7.1380810362
  H        14.8523809803       -0.9119039986       -7.8443380325
  C        12.6334920072       -0.9368474754       -8.2781032399
  H        11.7583627369       -1.4561413659       -7.7241857788
  H        12.7539083813       -1.2704260767       -9.3128173726
  H        12.4723042820        0.2154522903       -8.2382214800
  H        -2.5716048315       14.7516802539       16.6123576096
  C        -2.6408232200       13.6443610635       16.6175068638
  H        -3.7281565844       13.5024650335       16.9394683435
  C        -1.5837866525       13.1745950879       17.6011950126
  C        -2.3295081327       13.1741533511       15.1820917954
  C        -1.6616942355       13.8547026373       18.9797447195
  H        -1.6534488644       12.0373808024       17.6648294633
  H        -0.6269248564       13.4255875247       17.2170675195
  H        -1.3565245647       13.5752419090       14.9194124058
  H        -2.3000755715       12.1017800692       15.2821981438
  H        -2.9816975317       13.4796298379       14.4369260373
  C        -1.6663999795       12.9018226121       20.1761503190
  H        -2.4500259825       14.6184035717       18.9934707923
  H        -0.6921711120       14.3537587914       19.1928395201
  C        -2.0849239876       13.5614746913       21.5246844866
  H        -2.2605910602       12.0291786408       19.8948817238
  H        -0.6667526580       12.5466673464       20.1917958632
  C        -1.1703276304       13.0569117723       22.5716374458
  H        -3.0770869309       13.2621271626       21.8989750836
  H        -2.0516500045       14.6324497702       21.4620716328
  C         0.1368893154       13.8309272406       22.6903047962
  H        -1.6344677853       13.0457103734       23.5419805176
  H        -0.9761127815       12.0053863349       22.4754222132
  C         1.3294219508       13.1285811572       23.4947113595
  H         0.6363514015       14.1633208896       21.7805698556
  H        -0.1036465276       14.7205857777       23.2635837160
  C         1.7960350031       11.7860832202       22.8687592788
  C         0.9262230508       12.4670560511       24.8032183804
  C         2.5527759041       14.0208050304       23.6025858784
  C         1.5700719338       10.7367149065       23.7457305744
  C         2.2406528396       11.4533538951       21.5922393984
  C         1.0686504265       11.1386602987       25.0097477222
  C         0.2923107009       13.0715231889       25.8569654319
  H         2.7855058827       14.1848418337       22.5718126575
  H         2.3258855980       14.9558313545       24.1912654276
  C         3.8297099749       13.3148112685       24.1473339271
  S         1.9597372427        9.2190659778       22.9693558127
  C         2.4034365852       10.0761766653       21.5653450377
  H         2.3938754169       12.2293834501       20.8901088148
  C         0.6128741973       10.5112691601       26.1260836135
  H         0.1314240239       14.1433175877       25.8418367908
  C         0.0385553281       12.5084221495       27.0333061492
  H         4.1454237298       12.5152205657       23.4661266876
  H         3.6679190865       12.7968794117       25.1577786072
  C         5.0919842815       14.1562029379       24.4090553772
  C         2.9065965406        9.4288122610       20.2955799903
  C         0.2188679197       11.1976085672       27.2479035851
  H         0.6404501555        9.4457606390       26.2150479694
  C        -0.3901893450       12.8499473798       28.2841072188
  H         5.9191220815       13.5921550059       24.9884541105
  H         4.7673115477       14.9326892372       25.1092451494
  C         5.7134449743       14.7031782223       23.0598695524
  C         2.7948658625        8.0452151467       19.9330116864
  C         3.3803644917       10.3372538678       19.1970491479
  C        -0.1578335725       10.5025233717       28.5901791009
  C        -0.4655106148       11.8322348971       29.2163344114
  S        -0.7297010190       14.3805844445       29.0168945543
  H         6.4766385663       15.3590316535       23.4682061237
  H         5.1642666219       15.4451814750       22.5015268204
  C         6.3341475493       13.6840328269       22.1297852191
  N         2.4621254326        7.0495954280       20.8542207490
  C         2.9595693955        7.5913503894       18.6559939379
  C         3.6253311908        9.8706581885       17.9362163239
  H         3.5104941714       11.4138498007       19.3262410201
  C         0.9767843239        9.6920583274       29.3529757759
  C        -1.4898867101        9.6495943234       28.4055598921
  C        -0.9897179668       12.1754920812       30.4407419410
  C        -1.0968225220       13.5339827025       30.5195874317
  H         7.3805199962       13.9732693510       22.0505320327
  H         6.3151811773       12.6868357016       22.6717008075
  C         5.6776639661       13.4770896435       20.7810688378
  S         2.3408351883        5.5875578201       19.9935255910
  N         2.7653008452        6.2445245113       18.5856687756
  C         3.2654544910        8.4844367647       17.6160725287
  H         4.0527387214       10.4767833135       17.1792161755
  H         1.1361466077        8.7429095985       28.9131668482
  H         0.4545893268        9.4409154076       30.2925655817
  C         2.1576878644       10.5507111544       29.7705961726
  H        -1.1698460553        8.7474969656       27.8728080117
  H        -1.8696653423        9.5104401448       29.3729172705
  C        -2.6011072297       10.3378950645       27.5866587175
  H        -1.0420050226       11.4860613285       31.2862915874
  C        -1.2430486765       14.3255585617       31.7913078957
  H         4.9193159844       14.2079091028       20.4995210232
  H         4.9893957091       12.6350465749       20.9739008950
  C         6.7215150511       13.2774607066       19.6565566083
  C         3.4993201622        7.7973228313       16.3860546746
  H         2.4370294242       11.2113161253       28.9753369137
  H         1.8599089528       11.0450832344       30.7072861495
  C         3.3805385858        9.6928971084       30.2619682413
  H        -2.1930369702       10.6881496245       26.5721128671
  H        -2.7628127214       11.2932366344       28.1267186081
  C        -3.8884618265        9.5973417363       27.5288726005
  C        -1.4370238949       15.7189147203       31.8492494166
  C        -1.4667186576       13.6089491055       33.1015985774
  H         7.3200907827       14.2559965588       19.5752335097
  H         7.3415477475       12.4094948088       19.9378660142
  C         6.1766141157       13.1751829965       18.2207382502
  H         3.0516205894        6.8423298764       16.3376435907
  C         3.8909353499        8.2181973886       15.1314081082
  H         3.4470943160        8.8668687701       29.5533849108
  H         3.2137300561        9.1729466605       31.2488952502
  C         4.6354974333       10.4693253658       30.3706619596
  H        -3.7903781189        8.6997073964       26.9387840701
  H        -4.1597430987        9.2287491816       28.4783146844
  C        -4.9174626012       10.5006513447       26.9368043209
  N        -1.2040890155       16.6404906410       30.8384929032
  C        -1.7761678981       16.3752195329       33.0422688280
  C        -1.7985032928       14.2662231091       34.2627742823
  H        -1.3245266831       12.5672266347       33.1235572216
  H         7.0914620373       13.0391861575       17.6061756129
  H         5.5968290670       12.2902979561       17.9752882521
  H         5.6786443132       14.0446352752       17.8238660806
  S         4.1435422094        9.7950241680       14.6829894248
  C         3.9566505929        7.2236174806       13.9939290195
  H         4.6683485383       11.2819208308       29.6964640327
  H         4.8126605222       10.9559204205       31.3157106414
  C         5.8376669066        9.5470906261       30.1701096148
  H        -4.3770101767       11.3610207459       26.6531358000
  H        -5.6563245314       10.8342253966       27.6139301203
  C        -5.6636253924        9.8019580674       25.8230899558
  S        -1.5123474086       18.1240499876       31.3933906883
  N        -1.9459842083       17.7537912201       32.9364547355
  C        -1.9666125051       15.7526028546       34.3251502681
  H        -1.9786032607       13.6913973359       35.1489989012
  C         4.3757888311        9.1835867408       13.0497698273
  N         4.2808471463        7.8674983498       12.8359528552
  O         3.7829660843        6.0353762187       14.1299710550
  H         6.7124375299       10.1377725681       30.1450316714
  H         5.6978847472        9.1424279501       29.1877597566
  C         5.9119407556        8.2378851501       31.0801975611
  H        -4.8790579967        9.3945163388       25.1285027468
  H        -6.2896216574        8.9382077638       26.1170202179
  C        -6.7004698480       10.6998368800       25.2345646907
  C        -2.3205680376       16.5512458301       35.4337075001
  S         4.7669204207       10.1865624374       11.7391239201
  C         4.3133181347        7.1463480361       11.5408362820
  H         5.9742843575        8.4128653057       32.1399090340
  H         4.9798453111        7.7450940400       31.1354400531
  C         6.9216466624        7.2740034589       30.5443127672
  H        -6.3526086534       11.0407065704       24.2965830699
  H        -6.6621367100       11.6513158808       25.7325774133
  C        -8.0722468083       10.1494486445       24.9272183886
  H        -1.7211547228       17.4603872411       35.4994807212
  C        -2.9367567429       16.3841544292       36.6119411028
  H         5.0857208933        7.5581287152       10.8799496269
  H         4.7541438385        6.1368469321       11.6262437716
  C         2.9732823703        7.0138662121       10.8251455134
  H         7.9463030697        7.5906652379       30.6377381639
  H         6.7451598267        7.0581145824       29.5138464576
  C         6.9157492054        5.9465538188       31.2890745495
  H        -8.4792448567       10.5259677268       23.9242381271
  H        -8.0201352857        9.0812163791       24.6959792647
  C        -8.9735767851       10.4622436101       26.0553797868
  S        -3.7131558525       14.8798770447       36.9598727207
  C        -3.0754467748       17.4233496771       37.6334708427
  H         2.8447060533        7.7636169986       10.0660838725
  H         2.8593008942        6.1827910578       10.1203772259
  H         2.0919002669        6.9884758557       11.4827306913
  H         7.7373836859        5.9237101369       32.0235262450
  H         7.1988846156        5.1085582737       30.7632082467
  H         5.9503960020        5.7846076078       31.8278306379
  H        -8.7610145154        9.8840995999       26.8929827941
  H        -9.9465547049       10.2319113799       25.6355178734
  H        -9.0022960779       11.5465079574       26.2566479997
  C        -4.1376430543       15.6749477986       38.4907371839
  N        -3.7955458058       16.9729545529       38.6606906628
  O        -2.4052660106       18.5004980007       37.5520940956
  S        -5.0260954351       14.9076390701       39.8466677919
  C        -4.0534806177       17.7478688610       39.8364348151
  H        -4.2136469726       18.7836978030       39.5120356104
  H        -5.0249427237       17.5082463368       40.3464905976
  C        -2.9366685925       17.6320976267       40.8709605924
  H        -3.4268314862       17.7718209597       41.7995961271
  H        -2.5024101852       16.6408956332       40.7891563827
  H        -2.1195921874       18.2651750043       40.5745055898
