352
i=
  H         2.6643914862        3.4319747874       12.0965159984
  C         3.0418620006        2.4936769334       12.3545637414
  H         2.4022822311        1.8809182930       11.7181664028
  C         4.5877623007        2.4936130999       12.2729546484
  C         2.7185379403        2.1155589430       13.8113480102
  C         5.0560890757        2.7234811518       10.8183541698
  H         4.9336756057        1.4956850247       12.6055720946
  H         4.9841763217        3.2964530785       12.9011178484
  H         2.5267248738        1.0625231946       13.9899937130
  H         1.8496503150        2.5869145011       14.1869761628
  H         3.5475028398        2.4570989605       14.3667202249
  C         5.2774313007        1.4100257130       10.0784383840
  H         4.3404621284        3.3830005760       10.3118343034
  H         6.0102429280        3.2247222288       10.8940349814
  C         5.6744848985        1.7716629635        8.6507385384
  H         4.3162879478        0.9253931054       10.1007698668
  H         6.0038008045        0.7791259610       10.4698101220
  C         7.0067267334        2.4508386892        8.5310945275
  H         4.9106795506        2.3369905420        8.1483481992
  H         5.9717146711        0.9385351890        7.9825664212
  C         8.2169605582        1.6959029991        9.1276380611
  H         7.1853609321        2.6364995500        7.4549201243
  H         6.8341489260        3.4750474104        8.8785172285
  C         9.5363460935        2.5951807236        9.3209506412
  H         8.5144459828        0.8268409654        8.5734757619
  H         8.0071200401        1.4050870552       10.1383125600
  C         9.1502149738        3.9552519812        9.9642804021
  C         9.9424323167        3.2781168413        8.0775237080
  C        10.7444883201        1.9402182737       10.1786965786
  C         9.2761676662        5.0049961343        9.1310050181
  C         8.6580610427        4.3383755439       11.1924437848
  C         9.7721183254        4.6378038892        7.8893594779
  C        10.3179084948        2.6098272869        6.9259920143
  H        10.2507774886        1.4251862782       11.0626224835
  H        11.1563177701        1.1389262044        9.5114949143
  C        11.8156729042        2.9760693417       10.6227035219
  S         8.8725872347        6.4923328022        9.7752561627
  C         8.4770973698        5.7396012582       11.2548955890
  H         8.5916215495        3.5586280137       11.9731712992
  C        10.2619965204        5.2457007435        6.7709455328
  H        10.3631489415        1.6157482354        7.0316341647
  C        10.6683515049        3.2146053274        5.7155893404
  H        11.2726273099        3.6629005197       11.2475709498
  H        12.3238170545        3.6183444623        9.7781142572
  C        12.9854592709        2.4784043087       11.5116753026
  C         7.8542907271        6.4096094265       12.4546569059
  C        10.6838071070        4.5733805182        5.6119990128
  H        10.2913817510        6.3233426383        6.7244911424
  C        11.1085235502        2.7987537199        4.4612179912
  H        13.6797015717        3.2813899704       11.6218656741
  H        13.5523201863        1.6864428668       11.0034742846
  C        12.6157153266        1.8366022030       12.8092238909
  C         7.7843843796        7.8431493099       12.6344923107
  C         7.7168049359        5.5921108794       13.6896567789
  C        11.0912500684        5.2263341736        4.3115249125
  C        11.3241602856        3.8631424194        3.6462105542
  S        11.3829545833        1.3238801128        3.7121049655
  H        12.0837114887        0.9399197148       12.4652070468
  H        13.5256887188        1.5271617663       13.1813534167
  C        11.9041120139        2.6930880121       13.8421707993
  N         8.0844032723        8.7920272263       11.6677994353
  C         7.5328856376        8.4368700941       13.8581016994
  C         7.4213081020        6.2308289863       14.9542187326
  H         7.9284807480        4.5101220387       13.6540687022
  C        12.3830531068        5.9759843980        4.5457146437
  C         9.8618765354        5.9952362814        3.6631178548
  C        11.6796213944        3.4351949638        2.3370439480
  C        11.6773772693        2.0760673964        2.2033611455
  H        10.9782929631        3.0647430005       13.3928778954
  H        12.5315545708        3.5060277887       13.9493549640
  C        11.7509695396        1.9811411662       15.2264911776
  S         8.0014143610       10.2928974559       12.3897237668
  N         7.6516742767        9.7870909579       13.8396013489
  C         7.2804179736        7.6948945368       15.1096473700
  H         7.4554888618        5.6950065335       15.9030106523
  H        12.2001008185        6.7644560528        5.2184277964
  H        12.6658219335        6.5416297763        3.6001981773
  C        13.5807027199        5.1306664724        4.9743359745
  H         9.6142834158        6.7345587612        4.4583306449
  H        10.1866165568        6.6351794091        2.8794618916
  C         8.6691686272        5.1749761671        3.1391397420
  H        11.9599231425        4.1615404175        1.5314683009
  C        12.0323301154        1.3385787784        0.9439515763
  H        10.6672187993        1.9987719920       15.5588904290
  H        11.9684626240        0.9552436003       15.0055021713
  C        12.7007111035        2.5746188531       16.2446830644
  C         7.1042725883        8.3699037445       16.3729047307
  H        13.3900520450        4.3982075563        5.7679787318
  H        14.0620396771        4.6305701782        4.1176381731
  C        14.7305266726        6.0106716575        5.4863210705
  H         8.4827376756        4.4098926926        3.9326411696
  H         8.9254657222        4.5463956171        2.2732361188
  C         7.4570557061        6.0154409373        2.7065356168
  C        12.0157977645       -0.0761292482        0.7956874403
  C        12.2487346572        2.0295892865       -0.3085577356
  H        12.2431535108        3.5854782922       16.4990237099
  H        13.6087105623        2.6788907697       15.6785691140
  C        12.8223303416        1.7623374526       17.5182457650
  H         7.4732605398        9.3892553986       16.2949835340
  C         6.8114219438        7.9167366064       17.6415105590
  H        14.3278251850        6.7035220022        6.2322513111
  H        15.2377888623        6.6359844278        4.7396512454
  C        15.6251915351        5.1749379760        6.3337805693
  H         6.8788021717        6.3852321739        3.5353043921
  H         7.7951290763        6.9045000344        2.1944656821
  C         6.5795602203        5.3829302065        1.6149021825
  N        11.8493313152       -0.9126329702        1.8294124579
  C        12.2497204014       -0.7096021807       -0.4072998068
  C        12.5404982641        1.4237361256       -1.5075002992
  H        12.3887979351        3.1167112155       -0.2247604771
  H        13.4658831912        2.2054261687       18.2744816007
  H        13.1158736901        0.7617077362       17.3458295921
  H        11.8971596708        1.7035030068       18.0413414756
  S         6.2634153410        6.3329279366       18.1453320186
  C         6.8506497908        8.8838191655       18.7705492116
  H        15.1979120956        5.0716185740        7.3119753941
  H        15.5966674296        4.2505180091        5.7992379375
  C        17.0716414044        5.8014499684        6.4075606792
  H         6.4715793271        4.3728040365        1.6314955565
  H         6.8756576689        5.6001902789        0.5670812808
  C         5.1903856357        6.1027232155        1.6504598858
  S        11.6868037888       -2.4169456887        1.2723335882
  N        12.2023836906       -2.0790533509       -0.2514352808
  C        12.5801294556       -0.0382801095       -1.6101320024
  H        12.8165078491        2.0251311490       -2.3607206764
  C         6.1542847702        7.0033465916       19.8076804768
  N         6.4094816966        8.2710065274       19.8653467724
  O         7.0266011899       10.0445306883       18.6114947317
  H        17.5603908042        5.9728224192        5.4303700908
  H        17.0457381795        6.7843419935        6.9078743148
  C        18.1144765561        4.9585914939        7.1824668037
  H         4.5069954286        5.4012143767        1.2428521520
  H         4.8178483200        6.4546363965        2.6609833127
  C         5.2034537229        7.3371019437        0.8096234381
  C        12.7723375784       -0.8543542003       -2.7754233593
  S         5.7862359214        6.1378538358       21.2774325651
  C         6.4857170399        8.9883578162       21.0935961306
  H        17.8481992252        4.7813060477        8.2276019104
  H        18.1824343111        3.9785979104        6.7707890266
  C        19.4959826337        5.5883136322        7.2232806085
  H         5.1595481110        7.1024440454       -0.2629653628
  H         6.1316911645        7.8286168380        0.9713216697
  C         4.1700501603        8.3302077165        1.2974548770
  H        12.4428129787       -1.8630581620       -2.7403440447
  C        13.2137860720       -0.5565438536       -4.0265384781
  H         5.8138451412        8.5238818209       21.8436854755
  H         6.2229381744        9.9877151958       20.9452405991
  C         7.9216952440        9.0210013957       21.6285638373
  H        19.8834572995        5.1942894052        8.1468464817
  H        19.3883017668        6.6932277243        7.3647077805
  C        20.1961387661        5.2869554897        5.8749262266
  H         3.8752634829        8.9207892893        0.4730485406
  H         3.3115798863        7.8283677013        1.6935356070
  C         4.6456710251        9.1064620314        2.5042905505
  S        13.7843763495        1.0065743432       -4.6012779159
  C        13.3164472851       -1.6114127048       -5.0734819115
  H         8.1165226081        8.2148824706       22.2981011248
  H         8.2929669451        9.9149657415       22.1633720553
  H         8.7005132903        8.8516997992       20.9303191536
  H        19.5452580608        4.8871656751        5.0791403144
  H        20.5194677233        6.2556327673        5.5131465343
  H        21.0210039864        4.6332583189        5.9395737715
  H         3.8688848478        9.2974306542        3.2874341227
  H         5.3992352458        8.5449531526        3.0017141730
  H         4.9489008828       10.1552332911        2.2795928949
  C        14.0580154835        0.2136603056       -6.1940123779
  N        13.7844282841       -1.1280797775       -6.2387140284
  O        13.0406783564       -2.7565141835       -4.8315973655
  S        14.4566510368        0.9036922059       -7.7807899888
  C        13.8005168280       -1.8879033535       -7.5568004393
  H        13.9948420832       -2.8903217192       -7.3226508776
  H        14.5604610512       -1.6562735893       -8.2814573660
  C        12.3517915213       -1.7703193012       -8.2539767745
  H        11.6168194602       -1.1724327256       -7.7310540592
  H        11.7567704767       -2.6953721163       -8.4095021834
  H        12.5405015993       -1.3221286800       -9.1941143691
  H        -3.4365017569       14.8391855023       16.4684943463
  C        -3.2831700303       13.7316319972       16.4431983611
  H        -4.1982596473       13.1749220576       16.6453041095
  C        -2.2467930395       13.3778747511       17.4176918045
  C        -2.7313328270       13.2818310619       15.1037718946
  C        -2.8011159520       13.4719145908       18.8268247711
  H        -1.9580276105       12.3231886496       17.2154827270
  H        -1.3444206472       13.9432459531       17.3517762447
  H        -2.1781934725       14.0833685835       14.6440207221
  H        -2.0851833110       12.4831208637       15.1842589303
  H        -3.5792707752       12.9680170982       14.5167981408
  C        -1.6362017962       13.4089145278       19.8171076943
  H        -3.5492662496       12.6707714043       18.9924706185
  H        -3.1604208905       14.4894735201       18.8740092034
  C        -2.1414679872       13.4124465622       21.2491084077
  H        -1.0852053278       12.5635624631       19.6881581789
  H        -0.8512880614       14.1998665823       19.6243674178
  C        -1.1449677510       12.7813389005       22.2073192945
  H        -3.0446514707       12.8522177061       21.1440800288
  H        -2.4557779361       14.3567912181       21.5599975217
  C         0.0474060086       13.7423649861       22.5738327219
  H        -1.6204923777       12.3751535918       23.1352885392
  H        -0.8267528111       11.8292319428       21.7604463171
  C         1.2220719224       13.0016700029       23.2802786791
  H         0.4093062533       14.2332972018       21.6519442550
  H        -0.2689554063       14.4164100340       23.3514982099
  C         1.4635829964       11.6562528118       22.5906733832
  C         0.6570953512       12.2858640193       24.4921828703
  C         2.4705409588       13.8386592942       23.6697386463
  C         1.2167413004       10.5620694304       23.3981024304
  C         1.9446617682       11.2404524460       21.3245245079
  C         0.7979303076       10.9497247802       24.6374645981
  C         0.1917655088       12.8911619598       25.6682058113
  H         2.7604301585       14.3527245559       22.7508999711
  H         2.2233913205       14.7153302520       24.2655935474
  C         3.7720656393       13.0877838085       24.1746586334
  S         1.4866265725        9.0534712979       22.6855595118
  C         1.9720661501        9.8874574146       21.2328284105
  H         2.2075300948       12.0160653840       20.6025818673
  C         0.3754177241       10.3066755846       25.7909117338
  H         0.1824940147       13.9218259650       25.7010860492
  C        -0.2073369082       12.2584833351       26.7766554905
  H         4.0519136867       12.2692699896       23.4942728186
  H         3.4707355982       12.7422610808       25.1553368010
  C         4.9872123181       13.8767445137       24.4200158074
  C         2.3877364548        9.1678035795       19.9727709208
  C        -0.0903549280       10.9101787080       26.9168479700
  H         0.5589702058        9.2510049389       25.9148985145
  C        -0.5907715975       12.5834045008       28.0288262283
  H         5.8047330769       13.3323796033       24.8623375619
  H         4.7845470919       14.7192394352       25.1040691368
  C         5.6188629847       14.4107201539       23.1052848113
  C         2.5626338561        7.8064597670       19.8361407687
  C         2.8286681360        9.9488974627       18.7604176633
  C        -0.4388782264       10.2115224526       28.2191018170
  C        -0.7943982503       11.5253789870       28.8833004859
  S        -0.6134257943       14.0651937710       28.8487875955
  H         6.3180600700       15.1481431951       23.3997437544
  H         4.8156963625       14.7803362790       22.5398430008
  C         6.5514410299       13.3763172113       22.4658871318
  N         2.4038982974        6.8814582414       20.8520150542
  C         2.9609103669        7.1869207036       18.6260997907
  C         3.1641859642        9.3457870023       17.5367423426
  H         2.9897950497       11.0041838309       18.8514194937
  C         0.8251016246        9.4922918356       28.8880804988
  C        -1.7405641410        9.3560133583       28.1151332395
  C        -1.1498153329       11.9435220373       30.1791356857
  C        -1.0045060339       13.3105635575       30.3674363011
  H         7.5731477789       13.5920835789       22.7621877599
  H         6.2819007981       12.3839958714       22.7043913081
  C         6.3265874510       13.4955767454       21.0153030898
  S         2.3241036767        5.4351125695       20.1557956725
  N         2.8718192463        5.7888106326       18.6448341225
  C         3.1970490119        7.8601812377       17.4242519041
  H         3.5575924384       10.0086188197       16.8158434824
  H         1.2887508316        8.9093239503       28.1233291816
  H         0.4061847220        8.8012125330       29.5742620729
  C         1.8160532618       10.4951737361       29.6583016123
  H        -1.5423873584        8.4831253640       27.5140498960
  H        -2.0002221440        9.0153715012       29.0999901016
  C        -3.0115924995       10.0745691273       27.6213917962
  H        -1.1853350645       11.2197155450       31.0322750057
  C        -1.1900291850       14.0673266095       31.6049858881
  H         6.3317283586       14.5455553240       20.8385062866
  H         5.3733625043       12.9581603821       20.7067754831
  C         7.4710655328       13.0452919458       20.2077395520
  C         3.6042003404        7.1472642256       16.2102494060
  H         2.0947013612       11.3937159223       29.0972482747
  H         1.3757037934       10.8609073895       30.6001311960
  C         3.0615045875        9.7575059983       30.2505022038
  H        -2.7590771578       10.8215606152       26.8854717433
  H        -3.3863504095       10.6249053887       28.3996869811
  C        -4.0549430465        9.0744612866       27.2701072715
  C        -1.2864503311       15.4955932713       31.7759952232
  C        -1.3864506894       13.3088786662       32.8516553372
  H         8.3759000920       13.4993338098       20.6720067472
  H         7.5657479956       11.9335562612       20.2328295221
  C         7.3439854591       13.4908063343       18.7149968953
  H         3.7150766571        6.1167742745       16.3505862188
  C         3.9506929241        7.6384613688       14.9473376522
  H         3.6094591064        9.2370577742       29.4855479513
  H         2.6319016373        9.0707585844       30.9274684188
  C         3.9841945863       10.8045840110       30.9053032915
  H        -3.7592588021        8.5159711593       26.3802221847
  H        -4.1394153711        8.3594184050       28.0174054366
  C        -5.4279576917        9.6922418015       27.0592407004
  N        -1.0992859995       16.4044793536       30.7702826509
  C        -1.4562455523       16.1615810852       32.9948776148
  C        -1.5634973911       13.9764317650       34.0954743306
  H        -1.4006987821       12.2484438513       32.7973044756
  H         7.7536857270       12.7203963437       17.9889509401
  H         6.3390994665       13.8639047310       18.3729926049
  H         7.9614055592       14.3599364779       18.7286142238
  S         4.1379441552        9.2754569517       14.5357522518
  C         4.0925300589        6.5674385959       13.8726548771
  H         3.8724904617       11.7988796360       30.4460081646
  H         3.6323161732       10.9204531664       31.9606416497
  C         5.4028887672       10.3437347324       30.7570786139
  H        -5.3739019186       10.5622145248       27.6991938621
  H        -6.2370298566        9.0202970686       27.4074890693
  C        -5.4956874203       10.1504897451       25.6379250319
  S        -1.0885653120       17.9308456595       31.3263207417
  N        -1.5782296548       17.5496493048       32.8015145280
  C        -1.7042201912       15.4400291785       34.2024264165
  H        -1.6969820229       13.4114028653       34.9587708809
  C         4.4379797081        8.5217909435       12.8926040527
  N         4.4011030186        7.2004868868       12.7607280554
  O         3.9318095114        5.3719458113       13.9982667665
  H         6.1504909118       11.0495695288       31.1085087006
  H         5.5782211484       10.3414982326       29.6436972569
  C         5.6269347839        8.9528436232       31.3337904611
  H        -4.7407707206       10.9186841184       25.4028776709
  H        -5.3470624491        9.3007895889       25.0279427439
  C        -6.8030696667       10.8233026878       25.1217412444
  C        -2.0643002289       16.1716728719       35.3409595713
  S         4.6518773099        9.4327481932       11.4450128920
  C         4.4276936046        6.5006762616       11.4071492954
  H         6.3384847450        9.0401571734       32.1648090206
  H         4.9014363645        8.3294943413       31.7348677094
  C         6.4397204390        8.0756424738       30.3537459924
  H        -6.5857965918       11.4374553126       24.2782969464
  H        -7.1021690071       11.4412043777       26.0240970124
  C        -8.0131022410        9.9238896963       24.7829225187
  H        -1.8203310318       17.1704669236       35.3575044194
  C        -2.6273689809       15.7552052437       36.5065805538
  H         5.0975341245        6.9756277495       10.7405518060
  H         4.7759400607        5.4685220029       11.5319915429
  C         2.9844596776        6.3471795748       10.8811912492
  H         7.3074690384        8.7162972290       30.1165764691
  H         5.9288692518        7.8495158266       29.4287268280
  C         6.9443667129        6.7331464312       30.9383166522
  H        -8.4252113904       10.0177538123       23.7747247909
  H        -7.7656209857        8.8241308759       24.8805273680
  C        -9.1739749935       10.2178368591       25.7134328633
  S        -3.1551345709       14.0675713340       36.9277182626
  C        -2.6939245092       16.6612780870       37.6923150351
  H         3.0687409802        6.0756015838        9.8047440990
  H         2.4951901658        5.5263774691       11.3615263672
  H         2.4387564334        7.2755924821       10.8962448876
  H         7.6758630288        7.0303264875       31.7679999227
  H         7.4417217921        6.2654178377       30.1144010125
  H         6.1454592340        6.0623478317       31.3130763951
  H       -10.1130567918        9.6951036809       25.4560275588
  H        -9.4376906401       11.2711703914       25.8451680094
  H        -8.8936978915        9.8236855399       26.6644648043
  C        -3.7067778675       14.7622677445       38.4441492553
  N        -3.3511261181       16.0419383257       38.7182106286
  O        -2.4125646504       17.8527485331       37.6218413910
  S        -4.3069071328       13.8671471193       39.8444787225
  C        -3.5134718125       16.7157668896       40.0006623293
  H        -3.7627601737       17.7946803407       40.0252306537
  H        -4.3424427003       16.3591724549       40.5777960600
  C        -2.2396768259       16.3296939420       40.7214886395
  H        -1.4794632912       17.0552628679       40.5450091956
  H        -2.4528450922       16.3455166599       41.8121343819
  H        -1.9015036344       15.3886931236       40.5117229902
