352
i=
  H         4.4509708277        1.0352611937       12.5030948606
  C         4.2001160622        2.0646570359       12.7035200449
  H         5.1755325327        2.5944628144       12.5588751680
  C         3.2286106353        2.6285407452       11.6801803667
  C         3.5582455299        2.2880113959       14.1368989999
  C         3.9053967927        2.7476617615       10.3374399287
  H         3.0074000584        3.6622797797       12.0123547692
  H         2.3604208648        1.9909893535       11.7960483337
  H         3.0309295094        1.3026564225       14.3459392727
  H         2.8306450351        3.0636673045       14.1817553726
  H         4.2522743934        2.3369940957       14.9724504133
  C         4.6041752641        1.4451453623        9.8634727802
  H         3.0489771674        3.0403747947        9.6850506654
  H         4.6107243184        3.6470502407       10.3246473509
  C         5.1759638004        1.5459289402        8.4729101968
  H         3.8479167737        0.6805882473        9.9662020777
  H         5.4407237615        1.1247287152       10.5052575532
  C         6.5166366977        2.3329372351        8.4963761638
  H         4.4698133976        2.1246057274        7.8937368260
  H         5.1272455718        0.6117090941        7.9809751709
  C         7.7888497216        1.6895102863        9.0253901970
  H         6.6292497914        2.5942277604        7.4313019021
  H         6.3781146984        3.1873350875        9.1071942975
  C         9.0732066711        2.6036193630        9.3231410199
  H         8.2141057729        0.9325551552        8.3500939240
  H         7.4128582030        1.1713553558        9.9223161058
  C         8.6721539814        3.9046140236       10.0158540768
  C         9.5175330710        3.3118610590        8.1184609669
  C        10.2502054147        1.8590262948       10.1020370483
  C         8.9686273464        5.0152838462        9.2268987679
  C         8.1326605783        4.2099156993       11.2711435772
  C         9.4928710898        4.6675995677        7.9926763631
  C         9.9887964150        2.7262415235        6.9681468632
  H         9.8313915487        1.2591472043       10.9531941914
  H        10.6867023607        1.0395120757        9.4681226655
  C        11.3677111408        2.8119250100       10.5813000395
  S         8.6852967666        6.4598843941        9.9979328825
  C         8.1890729246        5.6092280868       11.4349247635
  H         7.8583832488        3.4499940051       11.9782600440
  C         9.9439791484        5.3219964379        6.8946119011
  H         9.9625451749        1.6444380145        7.0888568847
  C        10.4611648635        3.3308989315        5.7947061158
  H        10.9236968462        3.6503169401       11.1879709369
  H        11.7579908460        3.1968300488        9.6325277659
  C        12.5602637042        2.1337821204       11.2990646774
  C         7.6774610632        6.2814978421       12.6786574653
  C        10.4780150507        4.6978750659        5.7260232446
  H         9.8992343434        6.3979539651        6.8544339998
  C        10.8484338966        2.9114066500        4.5402171744
  H        13.4214992566        2.8273528680       11.2321597441
  H        12.7309543389        1.1160964664       10.9104022174
  C        12.3090601484        1.9892450098       12.8277525257
  C         7.7462699234        7.6841497727       12.9428904949
  C         7.2189129977        5.4158039573       13.7699162094
  C        10.9761732596        5.3511739222        4.4708011718
  C        11.2341211893        3.9607366771        3.7453087624
  S        10.9644045464        1.3374814041        3.7646959036
  H        11.9847311912        2.9019815475       13.2264146074
  H        11.4841371073        1.2362413692       12.9186824840
  C        13.5194724883        1.5221487077       13.6019282285
  N         8.3098827337        8.6188366667       12.0971041798
  C         7.3725977283        8.1917911277       14.1432806109
  C         6.8351676721        5.9481125999       15.0152913195
  H         7.1596202738        4.3397026711       13.6433586025
  C        12.2063598300        6.1899559542        4.8034650987
  C         9.9596798812        6.2349710445        3.6542300077
  C        11.5930438447        3.5366290565        2.4672332709
  C        11.5854034495        2.1343498474        2.3949831240
  H        14.1539074020        2.3560406957       13.8048462439
  H        14.1793210447        0.7773337392       13.1584592212
  C        13.0479183466        0.8804591693       14.9685693708
  S         7.8965569952       10.0561867590       12.6996906408
  N         7.3995063629        9.5881416710       14.2488154495
  C         7.0159491160        7.3685374189       15.2664207951
  H         6.6803691943        5.2202019432       15.7871000672
  H        12.0709407218        6.8930260180        5.6402916739
  H        12.3500996719        6.8393253095        3.9540583184
  C        13.5026512654        5.4240629048        5.0316401165
  H         9.8313193493        7.3053079942        3.9758194348
  H        10.3602159188        6.3605322764        2.6443522764
  C         8.6216447238        5.5137227199        3.3935520891
  H        11.8824542223        4.2480836306        1.7153376902
  C        11.8609100974        1.4068002990        1.0574810485
  H        12.0085221394        0.4873875308       14.8528185821
  H        13.7192543275        0.0247430707       15.1292715403
  C        13.2923106617        1.7788425500       16.2139498520
  C         6.7985956131        8.0188252229       16.5068504529
  H        13.2343740855        4.7874669630        5.8682794005
  H        13.9594027933        4.7354950074        4.2575848276
  C        14.5657322614        6.5041068116        5.3273975585
  H         8.2891671475        4.9511410720        4.2646037145
  H         8.6975993787        4.8095491139        2.4926743981
  C         7.4963455120        6.4470069538        2.9705445922
  C        11.8758384292        0.0225859533        0.9037987535
  C        12.1183778899        2.1804117182       -0.1710821210
  H        12.9621491172        2.7183272034       15.8752234556
  H        14.2988392541        1.9277128047       16.4667227472
  C        12.5177619531        1.4510295115       17.4582919844
  H         7.0575591075        9.1068071664       16.5580023226
  C         6.4446012892        7.5331258214       17.7656501017
  H        14.3293312965        6.9054507770        6.3410381232
  H        14.7718047812        7.3520464532        4.6428579420
  C        15.9005707882        5.8583430527        5.5689868042
  H         7.2230570264        6.9590043317        3.8984755335
  H         7.8503670481        7.1498727563        2.2600513823
  C         6.2164686666        5.7165704262        2.5101555660
  N        11.6355520840       -0.9263030935        1.9091112615
  C        12.2379454144       -0.6452243843       -0.2732118961
  C        12.3503372465        1.5594048727       -1.3702404320
  H        12.2110085777        3.2522853192       -0.0974115429
  H        11.3939655914        1.6159665437       17.3855582194
  H        12.7964559654        2.2106158502       18.1879698294
  H        12.6355800085        0.4014091015       17.8642437138
  S         6.2255247814        5.9198469319       18.2696434671
  C         6.3881408594        8.5181502155       18.8716505173
  H        16.1816118284        5.1663545534        4.7622936833
  H        16.6782054605        6.6546078448        5.5256974439
  C        16.1535177282        5.2328945583        6.8802690367
  H         5.7728495271        5.2469180978        3.3745642377
  H         6.5112040983        4.8496315950        1.9163390581
  C         5.1720336942        6.6409137586        1.8982465132
  S        11.6806409201       -2.4073210263        1.3208627004
  N        12.1671894293       -1.9857536223       -0.1855856403
  C        12.4530270294        0.0523986699       -1.4831388169
  H        12.3256303207        2.1766762265       -2.2879990048
  C         5.9745892773        6.5561072161       19.9209962682
  N         6.0018275494        7.8962868811       19.9822379386
  O         6.6826259240        9.7035165722       18.7868036211
  H        16.0926749470        6.0469772449        7.7137062543
  H        15.3730625613        4.5619854065        7.2636345944
  C        17.3891759799        4.4841138979        7.1648092240
  H         5.7543020930        7.3366931784        1.3142690318
  H         4.5325301954        6.1916525873        1.1810595654
  C         4.3369947705        7.4771440814        2.8478156377
  C        12.6905827840       -0.6630961406       -2.7227766488
  S         5.8883105932        5.6973774224       21.4542927764
  C         5.8101052857        8.5477154322       21.2879988063
  H        17.3068256028        3.8418226369        8.0235675098
  H        17.4922014063        3.8104001466        6.3521510759
  C        18.6949262989        5.3281824853        7.2955058639
  H         4.9004274319        7.9298851291        3.5888112649
  H         3.7256482841        6.8373602796        3.4172978839
  C         3.4779402485        8.6041558082        2.2022718525
  H        12.4428588471       -1.7195126481       -2.7488635247
  C        13.3975992002       -0.2183824124       -3.7936003654
  H         5.1234526948        8.1247824887       22.0154485724
  H         5.4790420857        9.5762534124       21.0790205101
  C         7.1167046575        8.5113892490       22.0724092938
  H        19.3531568758        4.9449781381        8.0050166158
  H        18.4584166193        6.2981122661        7.6929329708
  C        19.4598265089        5.6536779327        6.0081097204
  H         2.8593519583        8.1728043023        1.4332746076
  H         2.7548705734        8.9659376433        2.9603076860
  C         4.2568003887        9.7984992238        1.7201932116
  S        14.0418903385        1.3396582517       -4.1520727020
  C        13.5533746661       -1.1741488628       -4.8908815475
  H         7.3680366466        9.4994360188       22.4701665303
  H         8.0317541541        8.3168149059       21.4372783487
  H         7.2193011150        7.8846743546       22.9419292478
  H        20.4652667777        5.9708936515        6.2329995122
  H        19.5012636912        4.7556537932        5.4806302027
  H        18.9931226536        6.3842520467        5.3497640014
  H         5.3100625161        9.7021654424        1.9443845857
  H         4.1054614043       10.0355726089        0.6266411039
  H         3.8605181951       10.6538294551        2.2712610520
  C        14.2499456330        0.8269102926       -5.7946351420
  N        14.1053822830       -0.5154654693       -5.9650019811
  O        13.0864729465       -2.3320331074       -4.9421070023
  S        14.7432407565        1.8625531496       -7.0959703071
  C        14.1760175753       -1.1563695845       -7.3015951568
  H        14.3102820252       -2.2350374396       -7.1597547857
  H        14.8880306187       -0.7800582331       -8.0379099960
  C        12.7630680809       -0.9603643835       -7.9247638961
  H        12.2594928477       -0.0577277544       -7.7035436279
  H        12.1623608257       -1.8874885041       -7.7058342941
  H        12.8630221660       -0.9792667758       -8.9847668533
  H        -3.1783588795       14.7254381873       16.8599141764
  C        -2.6366914288       13.8084298153       16.8349684465
  H        -3.2110107654       13.0134180853       17.2302843432
  C        -1.3183040231       13.9691846800       17.6584375247
  C        -2.3364523257       13.4634949809       15.4033169233
  C        -1.4786988845       14.4358888089       19.0599443790
  H        -0.8480093510       13.0218352471       17.6526687081
  H        -0.6172138713       14.5825640156       17.0782038312
  H        -3.0080009058       14.0126054353       14.6797041073
  H        -1.3383541011       13.7707252783       15.1707740310
  H        -2.3164993981       12.3979569749       15.1290140836
  C        -1.7013583118       13.2697919114       20.0341291340
  H        -2.2453684865       15.1731994563       19.2118276645
  H        -0.5857665907       15.0950203458       19.1632333998
  C        -2.0827934747       13.8398597888       21.4051861799
  H        -2.5498241229       12.7033408282       19.6409378792
  H        -0.8551866761       12.7289088128       20.0677407229
  C        -1.2246474821       13.2365318661       22.5225835608
  H        -3.0589770860       13.3850836388       21.5744989676
  H        -2.1420797503       14.9233491349       21.3645977477
  C         0.1351650324       13.8729009063       22.7775665772
  H        -1.7908015199       13.3419788402       23.4461121522
  H        -1.1417993412       12.1793350581       22.4095869974
  C         1.1856408924       13.0218476900       23.5249999502
  H         0.6497890031       14.1629896318       21.8855665439
  H        -0.1022431879       14.7994728178       23.3612859556
  C         1.4772399884       11.6844086735       22.8133616413
  C         0.7350546630       12.3082825315       24.7711721572
  C         2.4996759864       14.0314952437       23.5846290211
  C         1.1509316695       10.5847660958       23.6025470899
  C         1.9377609182       11.3587074240       21.5254661131
  C         0.6650240101       10.9763386624       24.8031423041
  C         0.3385490027       12.9238352761       25.9109369610
  H         2.7136178597       14.4717967177       22.6293639712
  H         2.2482675744       14.8171804971       24.2652173078
  C         3.8064781126       13.3621544067       24.0729496351
  S         1.4938362856        9.1383400599       22.8251374934
  C         2.0725623830        9.9582433269       21.4200507160
  H         2.2513842015       12.0874173225       20.8034488014
  C         0.2572782036       10.3490380448       25.9196767830
  H         0.4876492021       14.0200146434       26.0389461286
  C        -0.1602797078       12.2866593703       27.0340252048
  H         4.0413864255       12.4393458010       23.5088450949
  H         3.7898105291       13.0978515097       25.1222074588
  C         5.0517340627       14.1722504575       23.8211895843
  C         2.4751402648        9.1959378243       20.2061073023
  C        -0.1160207784       10.9552193355       27.0579541419
  H         0.2016710976        9.3422880750       25.9734826585
  C        -0.5905105509       12.6938390879       28.3075067381
  H         5.8319816115       13.8192446362       24.5059644816
  H         4.8497873592       15.1636156071       24.2567079499
  C         5.5161841627       14.1522608336       22.3896819107
  C         2.3306117235        7.8265250717       19.9132271160
  C         2.8866917000        9.9873164287       19.0475477678
  C        -0.6012244327       10.2453459865       28.2823273667
  C        -0.6965003940       11.6217647048       29.0828390379
  S        -0.8069979125       14.2102158445       29.0638916577
  H         6.1100129926       15.0929780784       22.2066313223
  H         4.7195383881       14.2335900191       21.6228049288
  C         6.3772446263       13.0078517029       21.8747669982
  N         1.9035239326        6.8850786802       20.8445401509
  C         2.6431760397        7.2924441474       18.6792984608
  C         3.1590500546        9.4856442987       17.7854647838
  H         3.1825607697       11.0163620328       19.1599499336
  C         0.5405336310        9.3426047884       28.8461005734
  C        -1.9399212289        9.4705051056       28.0982059545
  C        -1.0772037211       12.0333135684       30.4175441863
  C        -1.2302286256       13.4317964142       30.5254318830
  H         7.3598667777       13.0176551631       22.1870717007
  H         5.8662120144       12.1155176909       22.2055050191
  C         6.3478326277       12.9214838079       20.3379752309
  S         1.9684627742        5.4097910227       20.1457356856
  N         2.4873015345        5.8924994098       18.6963509204
  C         3.1480896408        8.0474567329       17.5813445587
  H         3.6941873805       10.1550629829       17.1112330619
  H         0.9052146230        8.5897383104       28.1500668083
  H         0.1697700422        8.7963163985       29.7709508932
  C         1.8234864815       10.1325139321       29.2666842312
  H        -1.8710110550        8.6907737334       27.3476952821
  H        -2.1570621841        8.9889032563       29.0132807451
  C        -3.1470957725       10.4167791353       27.8319039597
  H        -1.2957993684       11.2727244031       31.1565919749
  C        -1.6420069802       14.1560645693       31.7895360563
  H         5.3913223734       13.1346578859       19.8997482037
  H         6.4593714996       11.9401650238       20.0429720654
  C         7.3410460929       13.8175731618       19.5952662203
  C         3.4585264218        7.3900356245       16.3444097137
  H         2.2408418716       10.7004727956       28.4528129302
  H         1.4571825505       10.8582154640       29.8853913945
  C         2.9051522880        9.3947124375       29.9185278396
  H        -2.9849673664       11.1004061909       26.9505500100
  H        -3.2820421411       11.1243830369       28.6377321806
  C        -4.3919084659        9.6543146732       27.4698316917
  C        -1.8001677682       15.5790818577       31.8672277395
  C        -1.7585672394       13.4432900961       33.0977754210
  H         7.1443825596       14.9143459806       19.7303611626
  H         8.3645129525       13.6181103415       19.8571796207
  C         7.1432758132       13.6120598471       18.1374092621
  H         3.3761979482        6.3124398586       16.4753200468
  C         3.8071271148        7.8827345779       15.0863775591
  H         3.4438930828        8.7688401134       29.1988549493
  H         2.5439186941        8.7205238856       30.6618263347
  C         3.9025844354       10.3082801820       30.6338331443
  H        -4.1744482312        9.2108885570       26.5164241610
  H        -4.5640957403        8.8675801896       28.2130139963
  C        -5.6590632449       10.4905902915       27.4339166666
  N        -1.6024054535       16.4429097514       30.7954438353
  C        -2.0930922881       16.2317378817       33.0140409919
  C        -2.2493421507       14.1575563311       34.2314193169
  H        -1.5244963679       12.4243753834       33.2239531909
  H         7.7741635666       14.3312469303       17.6082823968
  H         7.5027573609       12.6552996779       17.7104591055
  H         6.0992297430       13.8832382794       17.9615298195
  S         4.0070375967        9.5343116639       14.6557814454
  C         3.9190136667        6.8601782448       13.9722332082
  H         3.9659227208       11.2898926692       30.1365374761
  H         3.4978152706       10.2945464488       31.6771210481
  C         5.3356738405        9.7749239503       30.6377376464
  H        -5.4869572452       11.3699661309       26.9336790428
  H        -5.9627134717       10.7756123149       28.4510291499
  C        -6.9225693456        9.8381643595       26.7950926592
  S        -1.7228267951       17.9982181400       31.2978058046
  N        -2.1289213073       17.6664090015       32.8190603568
  C        -2.3905954625       15.5933448238       34.2093923358
  H        -2.1809402765       13.7196686644       35.2070496327
  C         4.2135973487        8.9021775263       13.0138980557
  N         4.1505588419        7.5578541579       12.8321669402
  O         3.7163544138        5.6134777654       14.0335905512
  H         5.9858469930       10.5998115063       30.9285776613
  H         5.6953229108        9.3936922869       29.6390502780
  C         5.4833536580        8.6309024595       31.5816793413
  H        -6.6876082306        8.8490983342       26.4983499766
  H        -7.5144288659        9.6181161701       27.5676660927
  C        -7.5326605179       10.6095870477       25.5994021406
  C        -2.7538326371       16.4101466189       35.2867945803
  S         4.3233283135        9.9180599781       11.5954830588
  C         4.2087908892        6.9587173332       11.5538148180
  H         6.3231498636        8.8634325849       32.2419103592
  H         4.5549029551        8.4979991265       32.1543668799
  C         5.8526003252        7.3435076928       30.9157939489
  H        -6.7641373397       10.7703629799       24.8125751206
  H        -7.7513217267       11.6724392931       25.9492540320
  C        -8.6131292317        9.8217952114       24.8215335748
  H        -2.3435419443       17.3680439215       35.2197283188
  C        -3.1327265461       16.1055086828       36.5755375834
  H         4.8279236140        7.4558469928       10.8854692036
  H         4.7503258771        6.0222926140       11.7171937930
  C         2.9578655717        6.6850825212       10.8691299507
  H         6.8392288397        7.3651371638       30.4395659329
  H         5.1301975229        7.1400027660       30.1426379942
  C         5.9384402403        6.2009177575       31.9266389018
  H        -8.8181458674       10.3256975045       23.8988775796
  H        -8.2394085367        8.8176275945       24.5138735193
  C        -9.8900820074        9.7464114571       25.7197187605
  S        -3.6333953195       14.5484011703       37.1134947105
  C        -3.2595894644       17.2045070189       37.5676618974
  H         3.1954769910        5.9550402702       10.1445659350
  H         2.2010429594        6.3454256042       11.5528111694
  H         2.5239344477        7.6479137973       10.4791640972
  H         6.5007406456        5.2721857851       31.6553973236
  H         4.9626000636        5.7856790664       32.0806342922
  H         6.3704777744        6.4545944206       32.8948279356
  H        -9.7569649742        8.9922859822       26.4804478994
  H       -10.7165060132        9.3546932166       25.0869536933
  H       -10.1475482704       10.6458146110       26.2944250620
  C        -4.0774946365       15.3966971682       38.5791728198
  N        -3.9024207118       16.7344701301       38.5981206010
  O        -3.0046947928       18.3571973299       37.3940967140
  S        -4.8114389524       14.6307700499       39.9288462166
  C        -4.3219305098       17.5735989916       39.7077611658
  H        -4.5609230195       18.5479915788       39.2831608993
  H        -5.2462655943       17.2754012031       40.2746776878
  C        -3.1565986090       17.6488241016       40.7614795415
  H        -2.6776918973       16.6923540570       40.9815449423
  H        -2.4521841078       18.3764864974       40.3438647817
  H        -3.5900679420       18.1488675906       41.6060863869
