352
i=
  H         3.3752421856        1.2664796241       13.9052409627
  C         4.1225437585        1.9797573890       13.5029450575
  H         4.9227387704        1.3223862846       13.1757046555
  C         3.5756325886        2.6813818746       12.2698551680
  C         4.7706446487        2.8306244747       14.6130991973
  C         4.6728328574        2.7964679407       11.1828047886
  H         3.0809903022        3.6756886184       12.3920039243
  H         2.6750906270        2.2518172099       11.7665457223
  H         4.2255067634        3.2484578939       15.4653701710
  H         5.1530918873        3.6943998399       14.1405684767
  H         5.4959761011        2.1662441781       15.1180711297
  C         4.8725470548        1.4865666421       10.4528917934
  H         4.6377799752        3.6796628508       10.5776827165
  H         5.5204267736        3.0276921568       11.7010692860
  C         5.3616567342        1.5845580668        9.0098784491
  H         3.9227685821        0.9437048743       10.4786737868
  H         5.4815028143        0.9394680779       11.1100455737
  C         6.6069511243        2.5198351166        8.9590523242
  H         4.5439810224        2.0733748873        8.4728948616
  H         5.5194834731        0.6214766873        8.5396158026
  C         7.9575957300        1.8485144139        9.1626623362
  H         6.7603318855        2.7730524177        7.9223891476
  H         6.4776292366        3.3704563295        9.5399038266
  C         9.1897206331        2.8137548865        9.4479745763
  H         8.2183647735        1.0406976983        8.4041146206
  H         7.8224536033        1.2939313339       10.1318269148
  C         8.7291599854        4.1323306493       10.0716318893
  C         9.6034153826        3.5066985726        8.2286540410
  C        10.3614553515        1.9559306688       10.2241771316
  C         9.0711525893        5.2657387786        9.3058770891
  C         8.0956891219        4.5140824519       11.2830482264
  C         9.5525131639        4.8342403120        8.0817028967
  C        10.0912329259        2.8921295691        7.0484631778
  H         9.9282532450        1.7586275201       11.2439884244
  H        10.5938360476        1.0522472402        9.7423557286
  C        11.7852765251        2.5760118017       10.3818478360
  S         8.8805982359        6.7599525199       10.0416396137
  C         8.1875943389        5.8827763437       11.3606195408
  H         7.7330665032        3.7742434612       11.9719858531
  C         9.9264798643        5.4481720671        6.8958429055
  H        10.2099812394        1.8405104915        7.0491530786
  C        10.3875653261        3.4900218751        5.8737587568
  H        11.7059941117        3.6765920951       10.7056459392
  H        12.1564692949        2.5621693010        9.3803385194
  C        12.7066189944        1.8729914638       11.3765572624
  C         7.8069066226        6.5909296515       12.6870702408
  C        10.3511172504        4.8311297952        5.7102254699
  H         9.8441015707        6.5254310500        6.9485213760
  C        10.8104873061        3.0255162990        4.6091054293
  H        13.6894831549        1.7019849760       10.8569409628
  H        12.2898293617        0.9025689898       11.5020885161
  C        12.8860451235        2.6807941076       12.6243781872
  C         7.7318211325        7.9942689213       12.8992675432
  C         7.3288663686        5.7714922195       13.8528927002
  C        10.6898769793        5.5171865235        4.3913338512
  C        11.0150506564        4.1489464000        3.7750018115
  S        11.1045679766        1.4754850359        3.8723976443
  H        13.4479366068        3.5350964173       12.4738315480
  H        11.9428614450        3.0597109130       12.8773582935
  C        13.4280038624        1.8118021057       13.8210033806
  N         8.0889818316        8.8940831289       11.9693312119
  C         7.4505675114        8.5967844128       14.1252177124
  C         6.9251585283        6.2904415005       15.0128649600
  H         7.1309896569        4.7135368556       13.7344543637
  C        11.9602251677        6.4096927349        4.6139008652
  C         9.4591976574        6.1833973028        3.8751818467
  C        11.4798461666        3.7368820546        2.5316079969
  C        11.4554327526        2.3305400913        2.4391526176
  H        14.1170880472        2.5042006784       14.4266489159
  H        14.0840336647        1.1065268140       13.2378294503
  C        12.3971293051        1.1347718619       14.6836791634
  S         8.1121385436       10.4187959457       12.5675004430
  N         7.5574748323       10.0092853417       14.0704918717
  C         7.0881211976        7.7659458118       15.2295393683
  H         6.5940509669        5.5672825047       15.7746559938
  H        11.6201311703        7.3915779437        5.0514150749
  H        12.4320718395        6.5869463855        3.6337482459
  C        12.9210740153        5.7914316771        5.6611320928
  H         9.0693915296        6.9217469087        4.5784392415
  H         9.8792290518        6.7089090201        3.0173394166
  C         8.3271498059        5.2140706393        3.5124890592
  H        11.7891545307        4.3840118195        1.7769829358
  C        11.7147061667        1.6066336042        1.1555372801
  H        11.6564071697        0.5136655802       14.1402658522
  H        12.9006074863        0.3841536131       15.3027505931
  C        11.8074772721        2.0535547479       15.6469766389
  C         6.8153458070        8.4094612254       16.4746160398
  H        12.5973518287        5.6691065127        6.7442498356
  H        13.0424331457        4.7872958796        5.3549519910
  C        14.2646649444        6.3808505756        5.5641944260
  H         7.9304021263        4.8332672295        4.3569208897
  H         8.6339475847        4.2947932267        2.9987527659
  C         7.3075541604        5.7392020755        2.4621804447
  C        11.7716161629        0.2106373418        0.9357417015
  C        11.9623582557        2.3956449691       -0.0652989512
  H        10.7654993676        2.0195755927       15.4740321544
  H        11.9520547400        3.0560869052       15.2646926852
  C        11.9726852476        1.9276690272       17.1450568448
  H         7.1273533968        9.4391240910       16.5282872204
  C         6.4450388773        7.9297088228       17.7062409030
  H        14.2842382315        7.3637915944        6.0555369440
  H        14.5610527004        6.5404539094        4.5072563021
  C        15.2028334723        5.3932437979        6.2177213867
  H         7.8497574987        6.3788454814        1.8568071011
  H         6.9963635029        4.8878743389        1.8145170594
  C         6.1118335574        6.3953139384        3.1066281124
  N        11.5167760698       -0.7072635777        1.9258304053
  C        12.0145108257       -0.4189320180       -0.2683575635
  C        12.1762595693        1.8259868818       -1.3195328455
  H        11.8749020875        3.4249404318        0.0553284885
  H        11.7972125920        2.8041068988       17.5947344039
  H        13.0801899719        1.6220463955       17.3658642077
  H        11.1495449638        1.1971173486       17.4901123633
  S         6.1046808485        6.3285376824       18.0802898430
  C         6.5402922243        8.7807821658       18.9193897222
  H        14.8251717282        5.1767012819        7.1776892333
  H        15.1903104227        4.5423353252        5.5063267228
  C        16.5764723653        6.0367704501        6.1587221624
  H         6.3011394315        7.2992460915        3.6447840110
  H         5.5325198573        5.7260818377        3.8179792264
  C         5.1524879212        6.7340907636        2.0192662635
  S        11.5668691725       -2.2066593859        1.2525358001
  N        12.1060606440       -1.7932169699       -0.1978312911
  C        12.2596072644        0.3430956487       -1.4776963466
  H        12.2489633676        2.5044976323       -2.1418123408
  C         6.1282631261        6.8102424016       19.7608390554
  N         6.2724587295        8.1011448407       19.9848421378
  O         6.6993675486       10.0281777698       18.8192643736
  H        16.8711905855        6.2689614063        5.1439581818
  H        16.4538704258        7.0123749372        6.6487417353
  C        17.6549764676        5.2140597465        6.8939931123
  H         5.6101758874        7.3141560595        1.2493237532
  H         4.7966601860        5.8473097257        1.4826142518
  C         3.9614673780        7.5897705477        2.6554516536
  C        12.5390058838       -0.4327941885       -2.6325456361
  S         5.5850224051        5.8227528432       21.1139995072
  C         5.8900712286        8.7684821781       21.2302894582
  H        17.3914718542        5.0980716145        7.9529128586
  H        17.6555060322        4.2132554899        6.3764950345
  C        19.0528128290        5.8515773453        6.8660981849
  H         3.8600903436        7.4703774313        3.7213075511
  H         2.9565381019        7.2638937652        2.3250776052
  C         4.0454178814        9.0769707508        2.2976074592
  H        12.2957412501       -1.5394976489       -2.5769024743
  C        13.0680757169       -0.1230845691       -3.8641600855
  H         4.8935424350        8.4814084045       21.4829062396
  H         5.7685639047        9.8230763182       21.1437347715
  C         6.9279254794        8.6868961530       22.3997579963
  H        19.5698769613        5.4305833065        7.7821216367
  H        19.0352857614        6.9077308412        7.0462662664
  C        19.8823611115        5.4753423502        5.6582738218
  H         3.4074515689        9.5698233743        2.9174852993
  H         5.0759503387        9.4800833786        2.4206319977
  C         3.6769401065        9.4111701063        0.8627258813
  S        13.7237509400        1.4558899561       -4.2225073519
  C        13.2429990352       -1.1143214054       -4.9418439511
  H         6.7455801842        7.9837376298       23.2285203541
  H         7.0566509782        9.6353190155       22.9118763019
  H         7.9366807200        8.5234177054       21.9273634646
  H        19.9068259347        4.4772437369        5.4129827553
  H        19.5437532004        6.1182219386        4.9035052706
  H        20.9784524612        5.7837668962        5.7996144658
  H         3.5572812461       10.4330160525        0.6399739583
  H         4.3281176132        9.0576640790        0.0502186462
  H         2.7728291792        8.8612308802        0.5612358209
  C        14.3374019195        0.6589212109       -5.7170551698
  N        13.9548931185       -0.5888352672       -5.9239456413
  O        12.8114353389       -2.2935675114       -4.8966010606
  S        15.3444614577        1.3994034842       -6.8839849730
  C        14.1630945071       -1.3577260461       -7.2070988604
  H        14.0044345656       -2.3906983394       -7.0940316558
  H        15.2469512229       -1.4231960952       -7.5258170364
  C        13.2941269383       -0.9536144887       -8.3268349134
  H        12.2001272630       -0.9296326612       -8.0376705787
  H        13.3181430368       -1.7485988134       -9.0962897339
  H        13.7865899372       -0.0202849291       -8.6484902299
  H        -3.0057184800       15.1290506267       16.8276913314
  C        -2.9815144240       14.0557231130       16.8741484180
  H        -3.9349780573       13.8690031808       17.1909266335
  C        -2.0313084728       13.6982455978       18.0241725158
  C        -2.6137239771       13.3945097636       15.5809135301
  C        -2.5691811803       14.1693891855       19.3031416949
  H        -1.7865268112       12.6241603243       17.9420202344
  H        -1.1670169302       14.2789221498       17.8926891972
  H        -2.9909317257       13.9752723792       14.6901864196
  H        -1.5019535015       13.3478127122       15.3904475005
  H        -3.0567194399       12.4090486525       15.5901639465
  C        -2.3285975918       13.1107562616       20.3921116866
  H        -3.6156907854       14.3862607674       19.2392896045
  H        -1.9772709397       15.0779323964       19.5559073553
  C        -2.5176089666       13.5376509051       21.8545096959
  H        -2.9893702207       12.2913418147       20.1064689974
  H        -1.3003391887       12.7884695217       20.2767218988
  C        -1.5562301086       12.8456971457       22.7618597326
  H        -3.5212041921       13.2429922812       22.0940501331
  H        -2.4584209749       14.5598111674       21.9304183422
  C        -0.3112324679       13.7198408258       23.0247340229
  H        -2.0810045711       12.5931758178       23.6831355204
  H        -1.2758277922       11.7977820970       22.4040835171
  C         0.8954718236       12.9542864615       23.6839782522
  H         0.0287591522       13.9554985290       22.0101157488
  H        -0.5355858191       14.6259502527       23.6108383426
  C         1.2656477997       11.6717489299       22.9548564579
  C         0.4161184817       12.2869278434       24.9696435075
  C         2.1548694359       13.9189821857       23.8269670705
  C         1.0813095698       10.5671824979       23.7412135993
  C         1.6900410852       11.2781043173       21.6422670960
  C         0.5297686915       10.9253150124       24.9965885040
  C        -0.2306538450       12.8316342034       26.0575006621
  H         2.1455129319       14.5473598474       22.9378428629
  H         1.8884746265       14.7032920792       24.5456512078
  C         3.5846424488       13.4153838627       24.0483680238
  S         1.4904279722        9.1025948064       23.0569015918
  C         1.8518088344        9.9129320401       21.5923742068
  H         1.8861611542       12.0452229874       20.8974266551
  C         0.1842651982       10.2182643804       26.1022060975
  H        -0.1900890285       13.9134193278       26.1069222034
  C        -0.4508648386       12.1657035215       27.1917875502
  H         3.7794827089       12.6467480484       23.3446873169
  H         3.5068716007       12.8576576528       25.0419238303
  C         4.6127346157       14.5704565688       23.9991760653
  C         2.3352979036        9.2626506225       20.3339052409
  C        -0.3626456546       10.8146327520       27.2896927120
  H         0.1969159649        9.0953770750       26.1259850552
  C        -0.7833840960       12.5928361029       28.4741915634
  H         5.4353711446       14.4056482841       24.7275558994
  H         4.1504990017       15.5071361305       24.3754471909
  C         5.1126200139       14.8065262003       22.5650862784
  C         2.3595500015        7.8882715600       20.0825080368
  C         2.8805291553       10.0942771397       19.2582365412
  C        -0.6924758007       10.1396040323       28.5844078427
  C        -0.9475639306       11.4907863131       29.2490977890
  S        -1.0914672088       14.0544362530       29.2176560347
  H         5.6441974965       15.7774007875       22.5476356573
  H         4.1946601139       14.9865984281       21.9518234266
  C         6.1492959982       13.7991193538       21.9569810863
  N         1.9013714332        6.9169137754       20.9496758859
  C         2.6866038230        7.3724964476       18.8490872681
  C         3.1681592247        9.5844040816       18.0069693379
  H         2.9473010921       11.1461465299       19.2727513233
  C         0.4919472148        9.4201811609       29.3366528364
  C        -1.9185016609        9.1587476135       28.3243653071
  C        -1.4099752480       11.8946386274       30.5191339033
  C        -1.4336620514       13.2328570904       30.6587650971
  H         7.1976607808       14.1590104981       22.0662991374
  H         6.1253116996       12.8044280152       22.5722910113
  C         5.9606226133       13.5168433473       20.4894803823
  S         2.0458675579        5.4740346303       20.2755196534
  N         2.4693599275        6.0200248381       18.7748249145
  C         3.1302189494        8.1305265307       17.7466134621
  H         3.6881290269       10.1434779454       17.2365711205
  H         0.6050902741        8.5143322421       28.7868485076
  H         0.1160287013        8.9060608478       30.1960746216
  C         1.7444179164       10.1348497562       29.6682989666
  H        -1.7976780803        8.4478879531       27.5315876631
  H        -2.1603797684        8.5170200972       29.1678285180
  C        -3.1659273207        9.8951809594       27.9329539330
  H        -1.6314801666       11.1767170740       31.2579089680
  C        -1.7477545353       13.9734817301       31.9449206473
  H         5.3163622547       14.3109568568       20.0268840824
  H         5.4250244442       12.6031872358       20.3260497984
  C         7.2269010594       13.3568079065       19.6657348044
  C         3.3377064740        7.4422117004       16.4417328933
  H         1.8822313008       10.6286170890       28.7313874853
  H         1.6246732650       10.8993888274       30.4774098237
  C         2.8774947548        9.1545683513       30.1584573747
  H        -2.9840179227       10.5349884674       27.1023119189
  H        -3.4906277102       10.5666998236       28.7388135246
  C        -4.4120867029        9.1077242739       27.5570796173
  C        -1.8177704400       15.3508025469       32.1420739425
  C        -1.8930342966       13.2031373688       33.2452670986
  H         8.0326502433       14.1211021625       19.8957111762
  H         7.6530293632       12.4328015460       19.7948486563
  C         6.8816129451       13.2507374278       18.1676302646
  H         3.2428633336        6.3870095383       16.4263342531
  C         3.7239668890        7.8595949763       15.1723128860
  H         3.1766966956        8.4811071282       29.4324925875
  H         2.5198855209        8.4782990584       30.9205856609
  C         4.1666874214        9.8304594987       30.6669718507
  H        -4.1599601721        8.4052473484       26.8136370622
  H        -4.7852738878        8.5984576308       28.4436630497
  C        -5.5808968228        9.9814609439       27.1583555581
  N        -1.6407340070       16.2876122826       31.0876041652
  C        -2.0459420225       15.9940134513       33.3133134776
  C        -2.1987898742       13.8479244209       34.4750513139
  H        -1.7530937976       12.1358323229       33.2576102434
  H         6.7741694031       14.3137377659       17.7942074139
  H         7.5407049846       12.7011838865       17.4712950507
  H         5.9168812437       12.8182458777       18.0432184013
  S         3.9429902455        9.4796766046       14.6417199804
  C         3.8232352179        6.9398778746       14.0651171815
  H         4.5171149742       10.6815321489       30.0658118917
  H         3.9975212301       10.3237412382       31.6229495797
  C         5.2734783002        8.7872172268       30.7690501096
  H        -5.1807750444       10.8091453013       26.6521202379
  H        -6.2403819012       10.3276971030       27.9477593378
  C        -6.5662011312        9.1650529126       26.2039130334
  S        -1.8458051560       17.7839444939       31.6374787543
  N        -2.0728386872       17.3354941847       33.2311900232
  C        -2.3324199231       15.3470994158       34.5481235158
  H        -2.4613782925       13.3288319158       35.3086209177
  C         4.1230925962        8.8481434910       13.0153485572
  N         4.1827094789        7.5310038482       12.9355625478
  O         3.5378640433        5.7953960655       14.2165238439
  H         6.2278973237        9.2973381506       30.7908183082
  H         5.3511551502        8.2058050324       29.8313714401
  C         5.3806299900        7.9426408891       32.1392804209
  H        -5.9470987540        8.5633366076       25.5431980953
  H        -7.2435091011        8.6089369317       26.8139251480
  C        -7.3318835817       10.1312874606       25.3702829558
  C        -2.6532471760       16.0874142334       35.7548764565
  S         4.7171330322        9.7471076559       11.6192987644
  C         4.2338089466        6.7603979282       11.6420729373
  H         6.2317864138        8.2331342398       32.6968725761
  H         4.5907416186        8.2286364093       32.8331219653
  C         5.4633807273        6.4326023917       31.8233909460
  H        -6.7217050408       10.4077717148       24.5255776959
  H        -7.5555855454       10.9558974430       26.0091942388
  C        -8.5778407201        9.5765197430       24.8740443696
  H        -2.4360293659       17.1513272640       35.6861056735
  C        -3.1669568962       15.6651817119       36.9697167318
  H         4.8258618247        7.1645255233       10.8537754085
  H         4.7453219948        5.8870652808       11.9331463760
  C         2.8362036792        6.5389061720       10.9352875418
  H         4.4717187381        6.0688623601       31.5155121507
  H         5.6042775995        5.9368562738       32.7996885842
  C         6.4880878645        5.9440527760       30.8323603758
  H        -8.9685898498       10.1699592666       24.0306166170
  H        -8.4069088495        8.5919500771       24.6211123268
  C        -9.7058366875        9.5392871453       25.9136281997
  S        -3.8698025228       14.1398228272       37.3551271112
  C        -3.2670010855       16.6842181193       38.0196998568
  H         2.4398445007        5.5274701846       10.8977172846
  H         2.1418599373        7.1086265713       11.5230326597
  H         2.7656788147        6.9236761960        9.9163498575
  H         7.2248943682        6.6907119075       30.4292749234
  H         5.9471250945        5.3620933500       30.0493767752
  H         7.2495987445        5.2953629221       31.3745910548
  H       -10.0667163625       10.5759865933       26.1631561453
  H        -9.4872003954        9.2241450337       26.9403115731
  H       -10.6385328137        9.1270895487       25.5427729316
  C        -4.2861485462       14.8415549709       38.8938051526
  N        -3.9274752894       16.1539996419       39.0341884793
  O        -3.0017148094       17.8719443837       37.8936887662
  S        -4.9945294407       13.9456762953       40.3030168614
  C        -3.8864489185       16.8993910893       40.2914463237
  H        -4.0908439930       17.9488517315       40.0914788005
  H        -4.6722916635       16.5695649721       40.9888706260
  C        -2.4799422700       16.7474481048       40.9755990215
  H        -1.9551712735       17.6879153274       41.1990123367
  H        -2.6374032679       16.2215280176       41.8760794342
  H        -1.8268381458       16.1675388642       40.2644911736
