352
i=
  H         4.5451391017        1.6549104238       12.8336374645
  C         3.8027354872        2.4446186023       12.8652703444
  H         4.4961599343        3.2858438964       12.7608860216
  C         2.9428478041        2.3494196162       11.6593010151
  C         2.9559438967        2.4696613162       14.0771594084
  C         3.8425566607        2.9444945381       10.4478779854
  H         2.0303258553        2.8724374719       11.8491596101
  H         2.6830397031        1.2858832667       11.5123969522
  H         2.6384427072        1.4758062213       14.2172050682
  H         2.1777481715        3.2345644780       13.8888051847
  H         3.5700264715        2.7165347066       14.9344296950
  C         4.6011352485        1.7256592763        9.8908428711
  H         3.1485331977        3.2748454937        9.6737514412
  H         4.5178541465        3.7006899263       10.7739475274
  C         5.3935253132        1.9427826788        8.5282078319
  H         3.8087397165        0.9410373686        9.6004884827
  H         5.2704349748        1.3177794650       10.6557083655
  C         6.6799164261        2.7556555013        8.6793034785
  H         4.6677794596        2.4621643073        7.8985428280
  H         5.6041930015        0.9873414801        7.9816459643
  C         7.8643134376        1.8040382465        9.0438416927
  H         6.9266685950        3.2170240556        7.7305163669
  H         6.5103895680        3.4454493557        9.4830755984
  C         9.1471470036        2.6506590846        9.4464506058
  H         7.9771149855        1.2704975394        8.1128777071
  H         7.6436159362        1.1253511762        9.9047210114
  C         8.8283150602        4.0067061174       10.1986610115
  C         9.6790405486        3.4097535286        8.2929501538
  C        10.2789351268        1.8747835417       10.2814746468
  C         9.1077784674        5.1037309664        9.4626996070
  C         8.4336390381        4.3882396284       11.4505732626
  C         9.5916334656        4.7757601039        8.1989993536
  C        10.1202432485        2.8850691554        7.0862636024
  H         9.9008043080        1.4279774946       11.1170548908
  H        10.8088673081        1.1523414579        9.7245390464
  C        11.4548132207        2.8207348655       10.7527367174
  S         8.8073096383        6.6177026005       10.1896402789
  C         8.3262647950        5.7311842272       11.5704502473
  H         8.1957319944        3.6089528352       12.1691669672
  C         9.9027308383        5.4525137385        7.0316827219
  H        10.2132343795        1.7867219976        7.1092528588
  C        10.4975985729        3.5351833389        5.9700235129
  H        11.0426794742        3.5456670077       11.4349386884
  H        11.9813276296        3.3141076743        9.9062156463
  C        12.4949316649        2.1639906738       11.5686208528
  C         7.7511082845        6.4658850407       12.7132434620
  C        10.4267854410        4.8576918020        5.8892673351
  H         9.8637753269        6.4796933592        6.9239058150
  C        10.8824353371        3.1174239360        4.7266975647
  H        13.4314462467        2.7529734130       11.6167790205
  H        12.8543022666        1.2983387172       11.0322524545
  C        12.0783863523        1.7001910686       12.9649429852
  C         7.6812004759        7.8999288389       12.9426258959
  C         7.3069670637        5.5788319942       13.8095131857
  C        10.7056596817        5.5335924071        4.5893275789
  C        10.9822957239        4.2143829971        3.8623975340
  S        11.2331330220        1.5816545910        3.8893772618
  H        11.4543174276        2.5055532855       13.4732480764
  H        11.4783602953        0.7850325186       12.9651807210
  C        13.3019564040        1.4607169992       13.8664056040
  N         8.1182245813        8.8869935140       12.0748812291
  C         7.3120958259        8.3477740785       14.1596660558
  C         6.8585319665        6.1431118780       15.0330928955
  H         7.2136592782        4.4926818998       13.8303785028
  C        12.0047194752        6.3935798955        4.6531660698
  C         9.5265040493        6.1884844910        3.8649202405
  C        11.2422986156        3.7774590086        2.5243264135
  C        11.3532769688        2.4333089437        2.3871540264
  H        13.9227226197        2.3622545241       13.9374466098
  H        13.9935405199        0.6874110698       13.4051016179
  C        13.0069779283        0.8938668167       15.2453695091
  S         8.0746873046       10.2680876932       12.8319049948
  N         7.5129823543        9.7115976891       14.2353496103
  C         6.9361803764        7.5340510401       15.2625299513
  H         6.5267301475        5.5207947238       15.8362599855
  H        11.8963433273        7.0268124267        5.5398162980
  H        11.9896480885        7.0090892065        3.7911817024
  C        13.3263430967        5.6690783575        4.8066940278
  H         9.2721848944        7.0935429740        4.4053091034
  H         9.9600432516        6.6294753825        2.9504762434
  C         8.2474390044        5.3893025074        3.5540369691
  H        11.4137012087        4.4645763411        1.7201701641
  C        11.6145577818        1.6578076795        1.0994453358
  H        12.4544713786        0.0068972214       15.2903541177
  H        13.9368414115        0.5644692439       15.6465102658
  C        12.3247082170        1.8487565105       16.2188121648
  C         6.7946966297        8.2126849235       16.5599383993
  H        13.1682922734        5.0649961882        5.7458372447
  H        13.4773915839        5.0689327971        3.9971242169
  C        14.5917574291        6.5697670628        5.0258011490
  H         7.9089573227        4.8526745969        4.4486271977
  H         8.3642912300        4.7531867957        2.7245669710
  C         7.1383148054        6.3053501490        3.1056704738
  C        11.6950128851        0.2020506470        0.9801195482
  C        11.7805349701        2.4731860791       -0.1570202869
  H        11.2417840649        1.6771953085       16.3607940655
  H        12.4337116188        2.8856502230       15.8587385009
  C        13.0458773936        1.8494191195       17.6278031425
  H         7.0171045423        9.2625947996       16.5344507258
  C         6.4485105507        7.8086606147       17.8143914312
  H        14.3843710391        7.1590601394        5.8870750701
  H        14.7548596694        7.2443006040        4.1571908177
  C        15.8303151028        5.7005237981        5.2859319193
  H         7.0372809451        6.9607446982        3.9493936839
  H         7.3850184072        6.8373539362        2.1395763757
  C         5.7241815172        5.6790551098        2.8276950541
  N        11.6871388400       -0.7537617625        1.9837215478
  C        11.9154702388       -0.3618758867       -0.2438841241
  C        12.0198721487        1.8461287953       -1.2883251791
  H        11.6381289556        3.5614626430       -0.1540913644
  H        12.8753873629        0.9201895980       18.0979592249
  H        12.5591578255        2.6813236648       18.2516180087
  H        14.1386968259        2.0128899142       17.6457654194
  S         6.2811699358        6.1391538778       18.2276185023
  C         6.4259011106        8.7235867135       18.9714295773
  H        15.7751641230        4.8144237563        4.6575677137
  H        16.7082569605        6.1566674945        4.9502410209
  C        15.9472723867        5.5144547760        6.8190300684
  H         5.1955451954        5.3729535475        3.7619310817
  H         5.8156532130        4.7851099916        2.1842803676
  C         4.7941365283        6.6640516401        2.1346057174
  S        11.6382600372       -2.2690925836        1.3221053905
  N        11.9201285626       -1.8050734672       -0.1769002050
  C        12.2639444936        0.3863684733       -1.3640567286
  H        12.0031125766        2.4874732980       -2.1598729997
  C         6.0560229313        6.7250723362       19.9101696591
  N         6.2040033590        8.0601499834       20.1163508591
  O         6.6491342883        9.8975757150       18.8713704819
  H        15.8444730592        6.3640401043        7.3792961870
  H        15.0399439762        5.0299283021        7.0583423659
  C        17.2246215834        4.7507291995        7.2753133235
  H         4.4941220050        6.3302098660        1.1824852894
  H         3.8509239273        6.6255619538        2.7602297228
  C         5.0815440317        8.1822716374        2.1670523358
  C        12.4234862262       -0.3635065649       -2.6037402553
  S         5.8417729961        5.6804558510       21.3204286165
  C         6.2683916258        8.6453614774       21.4466342286
  H        17.0570097115        4.0024489477        8.1112955571
  H        17.5367644099        4.0594153053        6.5688606086
  C        18.2655782619        5.7292082453        7.7150754841
  H         6.0413508001        8.4615762693        1.6486773425
  H         5.1519064280        8.5197886165        3.2504399419
  C         3.8848592603        8.9577801087        1.5159835754
  H        11.9955461528       -1.3078041360       -2.6209622837
  C        12.9536994087       -0.0273198406       -3.8013741303
  H         5.5474588342        8.1912592305       22.1242874972
  H         5.8566622852        9.6503635019       21.4739776281
  C         7.6917730479        8.7280119067       22.0587561777
  H        18.6499282057        5.3419860216        8.6303016227
  H        18.0189624602        6.6665157292        8.0170480926
  C        19.4149538558        5.8656073882        6.7659704003
  H         3.7015702433        8.3595290286        0.5937680982
  H         3.0432341807        8.7849249470        2.1805686151
  C         4.1575785627       10.4760990058        1.2011255436
  S        13.4062710990        1.5867397139       -4.3267813342
  C        13.3217001118       -1.0398289557       -4.7460642186
  H         8.0046062136        7.6835918426       22.0808636872
  H         7.7330599793        9.2894585881       22.9498889226
  H         8.2721026857        9.2550928834       21.2760587206
  H        19.7135044201        4.8994411242        6.3885733452
  H        19.0825073026        6.4204005188        5.8337974851
  H        20.3258334461        6.1730863482        7.1790516017
  H         5.1969488952       10.7648282972        1.4748087486
  H         4.0432258119       10.6963835952        0.1811297885
  H         3.6004247932       11.2374242659        1.6956533484
  C        14.0204460434        0.8252048088       -5.7531229517
  N        13.8643490648       -0.4899135923       -5.8788243187
  O        13.0733259594       -2.2299106681       -4.6020812727
  S        14.9460770990        1.7006943220       -6.9703943957
  C        14.0723735892       -1.2981156006       -7.0930409824
  H        14.2866987381       -2.3264598763       -6.7799252453
  H        14.9471909141       -1.0174665058       -7.6436780590
  C        12.9181072471       -1.2648722206       -8.0954965686
  H        12.7198825734       -0.2226944622       -8.4713368318
  H        12.0594821526       -1.7817755486       -7.7522899017
  H        13.1490955867       -1.8942646419       -8.9956983468
  H        -3.4878948096       15.1150332984       16.6044631711
  C        -3.0856859174       14.0713547563       16.5249883381
  H        -3.8096021907       13.3080615349       17.0308582092
  C        -1.7898276308       13.9936026456       17.2839711175
  C        -2.9590308241       13.7001363357       15.0168761669
  C        -1.8876362569       14.4423425960       18.7243076961
  H        -1.4874110856       12.9386164323       17.3831297692
  H        -1.0342598789       14.6353660799       16.7496307800
  H        -2.2673484158       12.9301837898       14.7678284965
  H        -3.7541023378       13.1899394120       14.4640969862
  H        -2.8008336256       14.6493390604       14.4417236828
  C        -1.6361714976       13.3107018975       19.7991224049
  H        -2.9151646695       14.7350023281       18.7089115756
  H        -1.3131647078       15.3372457163       18.8692714411
  C        -2.1699574848       13.5731665467       21.2525245232
  H        -2.0477720767       12.3463270554       19.5099027395
  H        -0.4912211177       13.1321647728       19.7438473097
  C        -1.2776855674       13.0232890626       22.4141733036
  H        -3.1177680239       13.0657895272       21.3714042465
  H        -2.3682993825       14.6112286578       21.3658736559
  C         0.0259073599       13.9491870314       22.8245373242
  H        -1.8335161291       12.7842769187       23.3548621515
  H        -0.9568228003       12.0548652737       21.9734316100
  C         1.1625407411       13.1170440919       23.4413757941
  H         0.3495153086       14.6136602219       21.9854588386
  H        -0.1659644897       14.6149153679       23.6284924359
  C         1.4807424079       11.8000945778       22.6572392488
  C         0.6531510818       12.4472427651       24.6261622443
  C         2.5446528350       13.8684886986       23.6942397515
  C         1.1487090245       10.7222939998       23.4899510825
  C         2.0279759799       11.4473562120       21.4573828066
  C         0.6238272587       11.1076344254       24.7084484781
  C         0.2230791753       13.0545987328       25.8364803664
  H         2.7181726229       14.5016492666       22.7685721343
  H         2.4061024373       14.5727966907       24.5247979113
  C         3.6777007759       12.9624484589       24.0460192735
  S         1.4510881905        9.2303871909       22.8132555645
  C         2.0405940414       10.0977221081       21.4089417798
  H         2.3639429673       12.2197318964       20.7813488594
  C         0.1534219503       10.4892782747       25.8075482203
  H         0.2929452989       14.1856594646       25.8005792711
  C        -0.3273344742       12.4518549053       26.9251176540
  H         3.8240981682       12.2580584583       23.2875755075
  H         3.5428373409       12.4067969683       24.9592625497
  C         4.8891733773       13.8654219667       24.0863403893
  C         2.5665778678        9.3575477946       20.2323901252
  C        -0.3268739602       11.1006196156       26.9887491284
  H         0.2208770239        9.4553413782       25.8652490236
  C        -0.8544049970       12.8567217721       28.1361675665
  H         5.6821417063       13.4001536263       24.6819225866
  H         4.7101983224       14.7701183074       24.6653391461
  C         5.5368256712       13.9843503391       22.6794874978
  C         2.5557021047        7.9383118521       20.0450623226
  C         3.1650995888       10.1703720466       19.1008620037
  C        -0.7621434232       10.3978074662       28.2504984497
  C        -1.0148434827       11.7627877163       28.9751918841
  S        -1.1515936930       14.3547092544       28.8995718519
  H         6.1277092477       14.8218299038       22.4274232728
  H         4.7865084716       14.0722301314       21.9037866857
  C         6.3994089016       12.7951354240       22.3316149625
  N         2.2913771420        7.0321829356       21.0631059410
  C         2.8742213866        7.3135391915       18.8340103426
  C         3.4344702116        9.5076335139       17.8991557416
  H         3.5525039588       11.1617007395       19.2104325852
  C         0.4557231982        9.4543492966       28.6623718699
  C        -2.0524685825        9.6156780988       28.0943205365
  C        -1.3054163313       12.1754087869       30.3170683505
  C        -1.4127259555       13.5447461333       30.4922351847
  H         7.4087785942       12.9646166834       22.7039269202
  H         5.9485386785       11.8990015599       22.7809509397
  C         6.5710635990       12.4383947331       20.8557089645
  S         2.3281005426        5.5349754508       20.3665163394
  N         2.8016364354        5.9871956899       18.8457956163
  C         3.2101587470        8.0115206403       17.6601000970
  H         3.7510944773       10.1776626655       17.0709813650
  H         0.7040322129        8.8129780261       27.8744354902
  H         0.2705519264        8.9132479286       29.6103480106
  C         1.7898583989       10.2335255234       28.8846401018
  H        -1.9587022725        9.0286037681       27.1834801530
  H        -2.2915754747        9.0573692592       29.0027891647
  C        -3.2389631363       10.5031012614       27.8053565656
  H        -1.3446180702       11.4052616233       31.0664088712
  C        -1.6509469731       14.3133143800       31.7648871967
  H         5.7033735441       11.8969299020       20.4938500430
  H         7.4917324014       11.8037474960       20.7908308201
  C         6.7586186722       13.6745407783       19.9835858289
  C         3.3245901834        7.3545638602       16.3713737963
  H         2.2099157382       10.6122800392       27.9255118222
  H         1.6835530980       11.0501279658       29.6540576881
  C         2.8755613982        9.3682031535       29.5327850176
  H        -3.2219978647       11.1708769354       26.9728436818
  H        -3.5326105827       11.1093657332       28.7016120692
  C        -4.4662201395        9.6171643162       27.6082728356
  C        -1.6375108105       15.7139520880       31.9059169902
  C        -1.6544270081       13.5057025722       33.0198556032
  H         6.0729211069       14.4563005588       20.1863988469
  H         7.6999758435       14.1538635358       20.2607148289
  C         6.8499197706       13.4756597161       18.4325843221
  H         3.2302260362        6.3445953778       16.4842777034
  C         3.6675470132        7.8076708660       15.1010113621
  H         3.3264002717        8.7054404041       28.7812205774
  H         2.4193611766        8.7554148478       30.2931483137
  C         4.0635294424       10.1493120511       30.1822579759
  H        -4.3076090010        8.7819679848       26.9431670617
  H        -4.5911297858        9.1685594396       28.5828840327
  C        -5.7272329718       10.4940115514       27.3954582604
  N        -1.4065754161       16.6072290512       30.9350604763
  C        -2.0075104386       16.2745714620       33.0808320500
  C        -1.9394764306       14.1179968826       34.2560433469
  H        -1.3859207497       12.4527920924       32.9185532754
  H         6.5435234987       14.3917418093       17.8760024714
  H         7.8784619185       13.1271861911       18.2083308561
  H         6.0736502762       12.7208460187       18.1642586179
  S         4.0333685894        9.4385589573       14.6143373070
  C         3.7448884607        6.7480366474       13.9853419229
  H         4.1844208139       11.1444569650       29.7603514463
  H         3.6384317859       10.3621171702       31.0768400555
  C         5.4270118756        9.4778276326       30.3267720203
  H        -5.4171083679       11.4313888391       26.8672372715
  H        -6.2294857842       10.7946233225       28.2822729856
  C        -6.6729591462        9.8215864406       26.3440070810
  S        -1.3968140696       18.0625683849       31.6032833114
  N        -1.9259885437       17.6940026502       33.1245170402
  C        -2.2638080709       15.5541806420       34.2814696800
  H        -1.9865294019       13.4592384341       35.1147279572
  C         4.1851459563        8.7735528395       13.0611635409
  N         4.0295188530        7.4466276362       12.8688001460
  O         3.5002618575        5.5323985905       14.0682858087
  H         6.1373079057       10.1885529184       30.7244341789
  H         5.7708036089        9.2006198310       29.3456313641
  C         5.3031842910        8.2583306300       31.2465446185
  H        -6.0971942962        9.2489154286       25.5646510484
  H        -7.4248827352        9.0420567577       26.8262069936
  C        -7.4772275198       10.8582526018       25.6444336496
  C        -2.5596041296       16.2618338217       35.4660303835
  S         4.6476297528        9.8203387646       11.7488980981
  C         4.0055042274        6.8498773125       11.5508924633
  H         5.2675220547        8.5980372171       32.2829895471
  H         4.3090295423        7.8958915112       31.0695752873
  C         6.3792316925        7.1048507147       31.0029212080
  H        -6.8561437728       11.3691547775       24.9222337443
  H        -7.8145217661       11.4992800083       26.4205003061
  C        -8.6335745393       10.1762630853       24.8469441330
  H        -2.4304216291       17.2981872488       35.4523896874
  C        -3.0092856607       15.9403949774       36.7419553545
  H         4.7591511747        7.2921935418       10.8198900491
  H         4.2760160959        5.8057906458       11.5048875289
  C         2.6059346262        6.9892989691       10.9370554258
  H         7.3482652930        7.5066873181       31.2763124821
  H         6.3841238941        6.7152564366       30.0008290459
  C         6.0483961065        5.8942939236       31.9720641300
  H        -8.8386708087       10.6652453221       23.8647239949
  H        -8.3842337391        9.1667756092       24.4727549635
  C        -9.9650033214       10.2458111505       25.7774282007
  S        -3.4083353655       14.3933252750       37.2978795560
  C        -3.2445844918       17.0592886840       37.7325652518
  H         2.5221454753        6.1016092298       10.1916145885
  H         1.7671922688        6.9424756874       11.6656083750
  H         2.4892310188        7.8874011336       10.3611148631
  H         6.3919450054        4.9331633154       31.5552135591
  H         5.0146979194        5.7726966421       32.3848316091
  H         6.6746380878        6.2466528569       32.7838878334
  H        -9.8102032400        9.9148492519       26.8171495475
  H       -10.8119196685        9.6769686177       25.3179254362
  H       -10.2147540766       11.3131283276       25.8003056535
  C        -3.6872085218       15.1291992395       38.8220142656
  N        -3.7438267232       16.4744874529       38.8354193752
  O        -3.1235944226       18.2379719828       37.5737999467
  S        -4.0214534788       14.3080115425       40.3319735923
  C        -4.0336478059       17.1818690194       40.0359045770
  H        -4.5111413043       18.1535422004       39.7865503783
  H        -4.7971691557       16.7050908159       40.6512607374
  C        -2.7766590963       17.4654645594       40.8135384991
  H        -2.8901637332       17.3805218591       41.9054034805
  H        -1.9014723129       16.7943268346       40.6854350257
  H        -2.3902709111       18.4448074667       40.5670580830
