352
i=
  H         4.3745488153        0.9673915256       13.2616269502
  C         3.8712110201        1.9348565194       13.0275132186
  H         4.5266607155        2.7921776274       13.2161568691
  C         3.3310285230        1.9026500406       11.5501955321
  C         2.7654061229        2.0599988091       14.0367457485
  C         4.4325902078        2.2083794583       10.4365667307
  H         2.5953450230        2.6951828158       11.6350488378
  H         2.8494074090        1.0391705885       11.2352484527
  H         1.9438725382        2.6144196633       13.6205540719
  H         2.9654145016        2.6016136379       14.9503367293
  H         2.5958656417        1.0603960656       14.3166769300
  C         4.8186120661        0.9978192311        9.5960497339
  H         4.2127395691        3.1158343894        9.7829824095
  H         5.2873404016        2.6167970232       11.0047613273
  C         5.5610098078        1.3281269590        8.2793897920
  H         3.8568253767        0.5409211117        9.3734930222
  H         5.4409404530        0.3005486399       10.2093988678
  C         6.7833875031        2.2903994151        8.4824965916
  H         4.9038526108        1.9009814272        7.6843481891
  H         5.9026847404        0.4783817195        7.6545424416
  C         8.0917506840        1.6128359410        8.9553412309
  H         6.9738904557        3.0043732673        7.5634226999
  H         6.5163294177        3.0813607045        9.1657878470
  C         9.2744555312        2.5853473061        9.1385893196
  H         8.3131550974        0.6269821046        8.4506983374
  H         7.8739857212        1.3547656762       10.0090405698
  C         8.9015307287        3.9152664701        9.8267946038
  C         9.7111125070        3.3412211164        7.9196963810
  C        10.4622009161        1.8788313843        9.8186416102
  C         9.0708456764        5.0706406613        9.0317099194
  C         8.3219948180        4.2266433892       11.0607210119
  C         9.6001909467        4.6742907836        7.8119475117
  C        10.1612022634        2.7501385679        6.7214334421
  H        10.1862657082        1.2753373366       10.6843010591
  H        10.7995808949        1.0776424142        9.1232103824
  C        11.6553282963        2.8439790362       10.1814832465
  S         8.5149855519        6.5128056598        9.7480015617
  C         8.2228925430        5.5909419765       11.1909190143
  H         8.1369099576        3.4956998099       11.7728243697
  C         9.8842450703        5.3468782828        6.6608954583
  H        10.2768907442        1.6733504697        6.8421452981
  C        10.5260269384        3.4525805645        5.5749783735
  H        11.3676387925        3.8889612084       10.3291102512
  H        12.4123308288        2.9299712860        9.4284349679
  C        12.5818337304        2.3862533633       11.2820176377
  C         7.7523190579        6.1992085500       12.4752988634
  C        10.3249576250        4.7624625522        5.4742758529
  H         9.8427801778        6.4785427669        6.6181843689
  C        10.8343531245        3.1107404394        4.2801443411
  H        13.5592063206        2.6750803537       11.1283842076
  H        12.7355673548        1.2967033505       11.1556551023
  C        12.1170405619        2.6066484132       12.7740303885
  C         7.6783591261        7.5745385142       12.7406322677
  C         7.3001694266        5.4116987769       13.6306412351
  C        10.7135231725        5.5846686004        4.2339996920
  C        10.9720250724        4.2709263656        3.4843885945
  S        11.2053813846        1.6547068927        3.4561625789
  H        12.2098032655        3.6432710366       13.0420214611
  H        11.0386917913        2.5691751227       12.7955191752
  C        12.5314986610        1.6676986118       13.8713334007
  N         8.0765759401        8.5940012233       11.8140980739
  C         7.2183031106        8.1439842661       13.9076259113
  C         6.9380435215        5.9579443365       14.8494845944
  H         7.2019039033        4.3488678469       13.5278864034
  C        12.0793993418        6.4272796461        4.3170859156
  C         9.5377635921        6.2825300355        3.5230543027
  C        11.3820410421        3.8829444247        2.2241665298
  C        11.3988538731        2.5797818460        2.0184730316
  H        13.6059047968        1.5244834468       14.0645073292
  H        11.9821452077        0.7609836777       13.9349603547
  C        12.1856902883        2.2752694287       15.2306187591
  S         7.7226233105       10.1171470559       12.4582005143
  N         7.2394885021        9.5346306007       13.9067940513
  C         6.9910265364        7.4155136470       15.0726202005
  H         6.5670003780        5.3581957688       15.6561658411
  H        12.0126924298        7.3286526780        4.9363795446
  H        12.1774359644        6.9054928590        3.3214279882
  C        13.3449113334        5.5129799447        4.6731575938
  H         9.0698317982        6.8558095159        4.3988554717
  H         9.9407550206        7.0072371287        2.7917926907
  C         8.4836352948        5.4066174160        2.8316030158
  H        11.5302548710        4.6494480631        1.5129375610
  C        11.6697983711        1.9733291216        0.6622347586
  H        11.7258017277        3.2739484921       15.0979414567
  H        11.3437388145        1.7521421499       15.6651678311
  C        13.4697983518        2.3991830090       15.9586691078
  C         6.7231704903        8.0666740654       16.3513631130
  H        12.9746086944        4.8063954822        5.3034727814
  H        13.7917396047        5.0482321851        3.7251505802
  C        14.4962446447        6.2654010610        5.3405088735
  H         8.1668861667        4.6097506240        3.5178172328
  H         8.7410539783        5.1206305695        1.8025451505
  C         7.2718397247        6.2398989929        2.5818731699
  C        11.7898051168        0.6026478938        0.4746738080
  C        12.0314146983        2.8272949804       -0.4193806674
  H        14.2114120397        2.9648872770       15.3895083203
  H        13.9429615015        1.4311807670       16.0592567210
  C        13.3684701661        3.0275630081       17.3455370208
  H         6.9731824104        9.1556700225       16.3361828066
  C         6.4332739515        7.5915755789       17.6044106849
  H        14.2477140604        6.7028966457        6.2269128447
  H        14.9794505944        7.0482019578        4.7702736793
  C        15.6037632185        5.3018786569        5.6604337505
  H         7.0928875881        6.8173291075        3.4962348174
  H         7.5150134296        7.0055376257        1.8223887149
  C         6.1311452295        5.4015289582        2.2145408876
  N        11.4783805813       -0.3517878679        1.4610801895
  C        12.2197989748        0.0613118601       -0.7233202523
  C        12.3532563416        2.2648683551       -1.6708469735
  H        12.1190884489        3.8733595862       -0.2632459100
  H        12.4238476439        3.5640437076       17.3403162545
  H        14.1891488897        3.8164918942       17.3816362360
  H        13.4283551137        2.2545470768       18.0781525844
  S         6.1520727660        5.9990335050       18.1728779260
  C         6.2962828238        8.6492639943       18.6964304472
  H        15.2772921833        4.5067868793        6.3197747211
  H        16.0505753277        4.9161811415        4.7623520910
  C        16.6508431499        5.9684619014        6.5387204035
  H         5.7540491645        4.9211203224        3.1641326573
  H         6.5361893011        4.7063793274        1.4958640437
  C         4.9889526229        6.3197545159        1.6110901809
  S        11.6631539284       -1.8388450238        0.7834558413
  N        12.2518995951       -1.3281383911       -0.6949247682
  C        12.4726836578        0.8010409002       -1.8553928667
  H        12.4647220793        2.9593136883       -2.4927565527
  C         5.8634199473        6.7364077473       19.7633717812
  N         5.8701626227        8.0714302827       19.7697293875
  O         6.2708212189        9.8551013652       18.5007109041
  H        16.9082699042        6.9090748769        6.1793026535
  H        16.2262009677        6.1219358890        7.4919073780
  C        17.9233256455        5.1476211404        6.8110468265
  H         5.1395386079        6.7093181345        0.6091100696
  H         4.2086193056        5.5776316196        1.4231846688
  C         4.5158297123        7.4160106049        2.5138038351
  C        12.7338087272        0.1269959691       -3.1255644314
  S         5.6777361706        5.9610627601       21.3624554968
  C         5.6324803072        8.8650578570       21.0045677564
  H        17.7082607200        4.7342397918        7.8326110570
  H        18.1089386536        4.3588892533        6.1123276376
  C        19.1930565525        5.9942340372        6.9520193594
  H         5.3851194357        7.7926315682        3.0790551858
  H         3.8748217351        6.9418529295        3.2902906416
  C         3.7824203250        8.5849405894        1.8021677533
  H        12.4119700219       -0.9121790457       -3.0047264178
  C        13.2790196785        0.4972995928       -4.3128608139
  H         4.9756037428        8.3230510680       21.7172909397
  H         5.2625040589        9.9215764689       20.8835825201
  C         7.0535768566        9.0963519151       21.6391121943
  H        19.7348419882        5.6579534127        7.8598226165
  H        18.9672925037        6.9861097268        7.0952853471
  C        19.9856516710        5.8954665858        5.7131918539
  H         3.1233864867        8.1865440756        1.0570455684
  H         3.1826843388        9.0986298523        2.4655852316
  C         4.7407033271        9.4745099744        1.1150474441
  S        13.9189792950        1.9848514201       -4.8105855046
  C        13.3077990635       -0.5744472294       -5.2687921586
  H         7.2295552496        8.4648945034       22.5369558732
  H         7.1617803346       10.1186464965       21.9808347667
  H         7.9637981487        8.8455532437       21.1032452758
  H        20.9804540080        6.2844848890        5.8658822081
  H        20.0026476310        4.9250047834        5.2677421511
  H        19.5924006142        6.5452194903        4.9002756989
  H         5.6626941728        9.4397045187        1.6992148448
  H         4.9065681294        9.0045005098        0.1883664595
  H         4.6035334459       10.5590850983        1.0420128216
  C        14.2427033781        1.1864502051       -6.2682005026
  N        14.0430534624       -0.1412725743       -6.2986622193
  O        12.7056840323       -1.6231300758       -5.1967529039
  S        15.0639176481        1.9862322018       -7.6304839669
  C        14.2734941892       -0.9814185979       -7.4748336672
  H        14.3237831812       -2.0350332637       -7.0899314322
  H        15.2615596151       -0.7868634068       -7.7963266669
  C        13.2907366661       -0.8363362892       -8.5799611145
  H        13.5729423055        0.0268706840       -9.1317616763
  H        12.2777952843       -0.7414148993       -8.3110303210
  H        13.4236357719       -1.6385915569       -9.2621062022
  H        -3.0076586610       14.8210198761       15.9328674319
  C        -3.2774850868       13.8522606399       16.3271638620
  H        -4.1810051275       14.0518231916       16.7259593045
  C        -2.3136915237       13.4155063507       17.4001476805
  C        -3.4613770952       12.8322592333       15.2407922356
  C        -2.8566223658       13.2467655193       18.9235822292
  H        -1.8744059440       12.4790142364       17.0917750353
  H        -1.5004863731       14.2048135103       17.4806577306
  H        -3.8696017955       13.2895514184       14.3552898762
  H        -2.6009362884       12.3062566753       14.9324768996
  H        -4.0810882156       11.9569378509       15.5686365584
  C        -1.7446339826       13.0778835142       19.9714692253
  H        -3.6304241091       12.4687898783       18.9372351736
  H        -3.4258271444       14.1633572798       19.1863853021
  C        -2.3014502240       12.9418627039       21.3755765851
  H        -1.0795912779       12.2573117426       19.7942619058
  H        -1.0976689567       13.9994650913       19.9261801189
  C        -1.3378225106       12.3859523031       22.4039439255
  H        -3.1468091248       12.2824881711       21.3821045500
  H        -2.6352133025       13.8912548982       21.7422244983
  C         0.0241312028       13.1213978078       22.5877399899
  H        -1.7482820362       12.2261064084       23.3892345140
  H        -1.1823734749       11.3458511805       22.1346986600
  C         1.1810620668       12.5542849484       23.3509180769
  H         0.4857605027       13.1704219728       21.5935048698
  H        -0.2981325810       14.1326169791       22.9108169576
  C         1.5425036227       11.2451480334       22.6011938221
  C         0.7453856380       11.8525025601       24.4975074601
  C         2.3842724377       13.4606910758       23.4525902484
  C         1.4390194582       10.0905962641       23.3848415720
  C         1.9621855247       10.8432026793       21.2732556753
  C         0.8803803276       10.4748721539       24.5438475421
  C         0.2968995241       12.4559317770       25.6530884804
  H         2.6515125436       13.8907381279       22.4844625030
  H         2.0537780763       14.2727212392       24.0601165491
  C         3.6964552977       12.8196890202       23.9716417867
  S         1.8339494107        8.6107116052       22.6553502647
  C         2.0196267611        9.4871992329       21.1638805861
  H         2.1795740185       11.6526817316       20.6026997860
  C         0.4799115038        9.7960859221       25.7276856080
  H         0.2485570327       13.5762056672       25.6480093137
  C        -0.1286920681       11.7525029580       26.7608147852
  H         4.0189063782       12.0446794367       23.2938993624
  H         3.4722636531       12.3496676324       24.9231375496
  C         4.7817107445       13.8512611049       24.0963212535
  C         2.4268644269        8.7965575465       19.8559232769
  C        -0.0348782448       10.4245433793       26.7995710166
  H         0.4808954553        8.7004773739       25.7329792389
  C        -0.5299029054       12.1080703324       28.0489352013
  H         5.5641187809       13.4536844707       24.7650930822
  H         4.4009962915       14.7048659914       24.6188135493
  C         5.4446744435       14.2442473629       22.6939014214
  C         2.4273158474        7.3731314259       19.6619038572
  C         2.7635940734        9.6629963928       18.6820731279
  C        -0.4570890658        9.7203318110       28.0571333104
  C        -0.7214407817       10.9993109639       28.8375362822
  S        -0.9159705922       13.5977445349       28.8301907631
  H         6.0367874648       15.1364386820       22.9719547450
  H         4.6514373422       14.4771079005       21.9362857823
  C         6.3591303596       13.2914967299       22.0133106362
  N         2.1749994079        6.4506243022       20.6671060215
  C         2.7412153393        6.8336436687       18.4316040877
  C         3.1416370321        9.1040616512       17.5096011614
  H         2.6240820637       10.7446045388       18.7407256551
  C         0.6825507119        8.9358002762       28.6846385942
  C        -1.8377159871        8.9435359038       27.8583005523
  C        -1.1344491496       11.3291836597       30.1056468690
  C        -1.1629235103       12.6620373636       30.2569208744
  H         7.3136329702       13.6945864722       21.8746387852
  H         6.5646663531       12.4385633584       22.6848696926
  C         5.7879642856       12.9159594039       20.6290792144
  S         2.2688632485        5.0347176436       19.9487988051
  N         2.7594853408        5.4964226921       18.4778537208
  C         3.1354326398        7.6160772758       17.2835431788
  H         3.4417630167        9.8071177439       16.7422243370
  H         1.0434865209        8.3465592973       27.8764407849
  H         0.1972146787        8.3087640849       29.3956131348
  C         1.7023373619        9.7904871983       29.3447267092
  H        -1.7343125646        8.2207347697       27.0745154713
  H        -2.1436394227        8.6224905344       28.8325314853
  C        -2.9218473546        9.8723227348       27.4293276373
  H        -1.3569602209       10.6106596737       30.8283369261
  C        -1.5776367334       13.3546036317       31.5036538537
  H         4.7294368638       12.7384167709       20.7862803704
  H         6.1385706096       11.8763779671       20.3574688265
  C         6.0368695004       13.8547897792       19.4699494361
  C         3.4022905835        6.9400580604       16.0721134107
  H         1.9528257831       10.7497615863       28.8078358669
  H         1.2169159765       10.0623681890       30.2636007316
  C         2.9840079900        8.9811261613       29.7759667645
  H        -2.5835943376       10.5400473140       26.7129134770
  H        -3.1042214748       10.4854325511       28.2499395096
  C        -4.0784943389        9.2132259988       26.7950452673
  C        -1.7599922706       14.7717317755       31.7086766309
  C        -1.7698670688       12.5615066605       32.7268647166
  H         5.1517768995       14.3004769698       19.1530035117
  H         6.6204616632       14.6850582440       19.8453577504
  C         6.6630030417       13.1954922828       18.2075753662
  H         3.1128407528        5.9258860817       16.1832539319
  C         3.7199181918        7.3956466950       14.8321939267
  H         3.1877214182        8.1373879182       29.1386618753
  H         2.6905085282        8.4448869331       30.7483670429
  C         4.2227223013        9.7705352449       30.1204063758
  H        -3.7517451201        8.8363643924       25.8039037812
  H        -4.2902901090        8.3602499113       27.4282518609
  C        -5.3132411313       10.0238006463       26.5735968379
  N        -1.5289689898       15.6709307909       30.7264703657
  C        -2.0899554357       15.3292555562       32.9495073555
  C        -2.1386524773       13.1676921145       33.9461091685
  H        -1.5163809211       11.5177423169       32.7361257247
  H         6.1882562003       12.2760743392       17.9586518040
  H         6.5374459466       13.7945314830       17.3146007206
  H         7.7313369053       13.1200330230       18.3424532544
  S         4.0207356821        9.0165958701       14.2849145599
  C         3.8458684811        6.3004085660       13.8654182337
  H         4.2756128066       10.5924172683       29.4152392831
  H         4.1083101404       10.2503365686       31.0231116923
  C         5.4357567821        8.9323530075       30.0772720543
  H        -5.1682063178       10.8802727805       25.8894081446
  H        -5.6033972321       10.4187597781       27.5207286703
  C        -6.4965530639        9.2473974054       25.9552858375
  S        -1.4845729581       17.1180843591       31.4256174143
  N        -2.1309808157       16.7062191043       32.9017953691
  C        -2.4588455987       14.6017155578       34.0653238354
  H        -2.0420172962       12.5564678719       34.8894067525
  C         4.3523411115        8.2140326772       12.7332385911
  N         4.3317308402        6.8542604576       12.7081973277
  O         3.8690922997        5.1429314787       14.2406591745
  H         6.3503678213        9.5016939672       30.1867030502
  H         5.4788503709        8.4076876930       29.0534310112
  C         5.3825988165        7.8481755262       31.1224571971
  H        -5.9752317018        8.5954023109       25.2436745812
  H        -6.9952472532        8.5156629211       26.5932822662
  C        -7.3953811271       10.2732252586       25.3552411010
  C        -2.7937940086       15.3047940209       35.2308635082
  S         4.7061593401        9.1433986251       11.2802937436
  C         4.2479854009        6.0510757411       11.5069140127
  H         5.8614736525        8.2415256507       31.9648824095
  H         4.3663157180        7.4990423948       31.4197764301
  C         6.1938404189        6.6158952108       30.6318704397
  H        -6.8950237406       10.8897550761       24.5985274947
  H        -7.7183845260       10.9757821139       26.0575236310
  C        -8.6387869216        9.5733232726       24.7946900778
  H        -2.3566788276       16.2416309182       35.4220954967
  C        -3.4215955029       14.8837192709       36.3692850783
  H         4.9705464763        6.2760579654       10.7077353640
  H         4.5788062851        5.0303196833       11.8341866276
  C         2.7694452422        6.0664719040       10.9791429166
  H         7.1393954712        7.0273296735       30.3218625357
  H         5.7873680778        6.1289413903       29.7793562534
  C         6.4451239081        5.6723729074       31.8332321490
  H        -9.0065661448       10.1390344472       23.9250374283
  H        -8.4111217767        8.6616467823       24.3047059927
  C        -9.6902626453        9.2659743118       25.8718683196
  S        -4.2884800500       13.3634398009       36.5400796569
  C        -3.4062026996       15.7107659826       37.5624123927
  H         2.8157849785        5.3816281667       10.0769885367
  H         2.0816908220        5.6534698183       11.7457352752
  H         2.4665792306        7.1103338003       10.7212415704
  H         6.5465016179        6.2269317938       32.7690054627
  H         7.4240836634        5.2313941309       31.6480955551
  H         5.6394371915        4.9320423362       31.8823674364
  H       -10.3618609279        8.4488501467       25.5050022568
  H       -10.2613567591       10.1459325681       25.9385863024
  H        -9.3214674709        9.0917781091       26.8872206527
  C        -4.5902042240       13.8686220132       38.1613787442
  N        -4.2001201917       15.1434891105       38.4840548208
  O        -2.6751676718       16.7132803717       37.7358420016
  S        -5.3447361722       12.9187453014       39.3466771296
  C        -4.3282158910       15.7975387719       39.8018091081
  H        -4.5347496035       16.8252794589       39.7103283376
  H        -5.2141355263       15.3585519735       40.3517815754
  C        -3.1681623988       15.5209433014       40.6986161948
  H        -3.6028641345       15.3986369289       41.6913452872
  H        -2.5693868243       14.6585137832       40.3789509227
  H        -2.5263767160       16.3613688036       40.7139340501
