352
i=
  H         3.0101955050        3.7155581114       11.6239483846
  C         3.0785096681        2.6659163124       11.9141605551
  H         2.2284615283        2.2050340873       11.3847727242
  C         4.3593334022        1.9984311063       11.4447541220
  C         2.8041902132        2.5680205038       13.5078456253
  C         4.3869334430        2.2247024402        9.8876692231
  H         4.2606669745        0.9222208366       11.6793994716
  H         5.1970269553        2.2837179169       12.0278805478
  H         3.6925733130        2.7770049073       14.0768554017
  H         2.5780201485        1.5617696041       13.7892481586
  H         1.9721745818        3.0762629704       13.9220197413
  C         5.1126225464        1.1918885435        9.0085250026
  H         3.3176768420        2.2277667634        9.5442027703
  H         4.6648537086        3.3091686979        9.8229298988
  C         5.8045160252        1.7543769732        7.7399446079
  H         4.5255954044        0.3092434130        8.6528241230
  H         5.9035598083        0.8544390834        9.6607313529
  C         6.9725417959        2.6273444100        8.1712914692
  H         5.1375914835        2.3623160849        7.1078844880
  H         6.2638320739        0.9830137804        7.2030549495
  C         8.2170317822        1.9785161502        8.7190395852
  H         7.2696578243        3.2367549305        7.2936262132
  H         6.5756843439        3.3198466340        8.8434030648
  C         9.3318520160        2.9409889200        9.0953071544
  H         8.4333776206        1.0574422586        8.1184404491
  H         7.9571457986        1.4940070870        9.6595151916
  C         8.9406028669        4.2226952779        9.7998498049
  C         9.7437889381        3.6803388323        7.8643962973
  C        10.4048112070        2.2323536334        9.8392317226
  C         9.1226434245        5.3462619189        9.0584593843
  C         8.5066699367        4.5593109217       11.0933700194
  C         9.6025206542        5.0546289573        7.7814017760
  C        10.1921952780        3.0698869299        6.7173760523
  H         9.9019174793        2.0405583057       10.7705608606
  H        10.7374957984        1.3417399953        9.3124279276
  C        11.6964969816        2.9959511233        9.9418322246
  S         8.9614769566        6.8444764051        9.8881439469
  C         8.4441904383        5.9131095129       11.2516669037
  H         8.2208473716        3.7593787860       11.7392464384
  C         9.8796077848        5.7627106078        6.6364458598
  H        10.2312781010        2.0213111577        6.5931728150
  C        10.4102445334        3.7875946354        5.5407086925
  H        11.5317406684        4.0571662735       10.2713812101
  H        12.0881394927        2.9231860656        8.8891951225
  C        12.6810527145        2.3577924366       10.9344775767
  C         7.9214748320        6.5627640987       12.5163121462
  C        10.3628013136        5.1486753484        5.4645122007
  H         9.7227430479        6.8970502858        6.8076169896
  C        10.9484193230        3.4933139853        4.2810571066
  H        13.6787463650        2.7775647751       10.7835242048
  H        12.8136326935        1.3093079639       10.5726962859
  C        12.1629912194        2.5306223116       12.3579930922
  C         7.9329157367        7.9185100800       12.8126534134
  C         7.3763442987        5.6731799148       13.5794395167
  C        10.8722276145        5.8968187615        4.2135083028
  C        11.0762759138        4.5875772238        3.4390165219
  S        11.2680540198        1.9907367363        3.4466701060
  H        11.7576427555        3.4847753362       12.6420518722
  H        11.3516322938        1.7485341682       12.4027110504
  C        13.1857524748        2.1799942032       13.4137396521
  N         8.2301146015        8.9016136743       11.8751499842
  C         7.5653063477        8.4133254781       14.0166014595
  C         7.1054005029        6.1460107253       14.8217743579
  H         7.4012522789        4.5933185124       13.3923342296
  C        12.1982458516        6.6895813055        4.3969985603
  C         9.7274373010        6.7059091624        3.6560975727
  C        11.3334820406        4.2272600518        2.0610396586
  C        11.5291949173        2.8732192192        1.9455994931
  H        13.9626972186        2.9475350338       13.4644985497
  H        13.7446191509        1.3300785491       13.0289956826
  C        12.5845316841        2.2650147059       14.8698176328
  S         8.1153173736       10.3652731504       12.6049784295
  N         7.8342609128        9.7883497999       14.1191898302
  C         7.1241056698        7.5883708476       15.1421020097
  H         6.8076306650        5.5055097086       15.6002743803
  H        12.1129810479        7.5217399341        5.0996254227
  H        12.4951196261        7.0449258327        3.4060407869
  C        13.4040240518        5.9631662500        4.8884301640
  H         9.5512147350        7.5429404286        4.3551950226
  H        10.1596890336        7.1069981675        2.7003576898
  C         8.4135034174        5.8912533506        3.3496152291
  H        11.3517263361        4.9646449010        1.2526165042
  C        11.9557030185        2.0999549455        0.6879042761
  H        11.9575959829        3.0968938510       14.9689082172
  H        11.8478211380        1.5185150207       14.8593252308
  C        13.5268716898        1.9944709019       16.0065498741
  C         7.1319609730        8.1309746705       16.4729129003
  H        13.0619667747        5.4277575837        5.8324289797
  H        13.6645215174        5.1551024877        4.2238446140
  C        14.6240309269        6.7717895334        5.0152244643
  H         8.0322788773        5.5466193494        4.3038590213
  H         8.5338658930        5.0814535370        2.6466362062
  C         7.2984147964        6.7760216409        2.7982060664
  C        12.0168693157        0.6870642563        0.6027327905
  C        12.2790991849        2.8401554785       -0.6104701726
  H        14.3476255507        2.6613373274       15.7797491613
  H        14.0320091740        1.0157790931       16.0223736892
  C        13.0532452379        2.5064655417       17.3340991983
  H         7.2212483578        9.2463782438       16.3839759482
  C         6.7624012459        7.7002508038       17.7135453137
  H        14.5507760226        7.4636890330        5.8726324757
  H        14.6457917803        7.3912883116        4.0935358635
  C        15.9851487962        6.1345685493        4.9836978241
  H         7.2151218823        7.4349836204        3.6313143251
  H         7.7761196643        7.2307810686        1.9164239216
  C         6.0384893203        6.0122502971        2.4765574278
  N        11.6306277396       -0.1910161971        1.5825612729
  C        12.2635682027        0.0297983631       -0.5663587737
  C        12.5724316566        2.1642330091       -1.8186606776
  H        12.0881674263        3.9279250374       -0.6236800789
  H        12.8467146935        1.7967132466       18.1700527346
  H        12.0555823609        2.8894207506       17.1548891079
  H        13.8074888384        3.2392010247       17.7169651409
  S         6.3673199953        6.0841158979       18.1270805115
  C         6.6957881922        8.5991719066       18.8368131324
  H        16.1499673281        5.6593990858        3.9607525204
  H        16.7461138797        6.9272495301        5.0191696622
  C        16.3295710009        5.2305007846        6.1496593356
  H         5.8541300332        5.3284317104        3.3871736587
  H         6.2134464143        5.3142931893        1.6520662128
  C         4.8391994605        6.9404279498        2.1296758895
  S        11.7010831747       -1.7084147598        1.0486658497
  N        12.1882961205       -1.3778165799       -0.4396413569
  C        12.5704682442        0.6565351714       -1.8258248308
  H        12.7813383010        2.6898684091       -2.7360032719
  C         5.9456138009        6.6968404791       19.7590557236
  N         6.1719084569        8.0120058733       19.9187377644
  O         6.8682836961        9.8242140929       18.7119974098
  H        15.9819935364        5.7170164868        7.0350082961
  H        15.7893171444        4.3123398993        6.1403671725
  C        17.8034911113        4.9750291500        6.1505985292
  H         3.8838648125        6.3705296852        2.0549246323
  H         4.7189542799        7.7139128515        2.8579287092
  C         5.0493207611        7.5957643720        0.8744690488
  C        12.7392722112       -0.1967171303       -2.9940860593
  S         5.2066296255        5.6760346973       20.9296970392
  C         6.0799813773        8.7714032925       21.1949228825
  H        17.9799184431        3.9307092955        6.5237895642
  H        18.1220642221        5.0371696451        5.1261650748
  C        18.4738186640        6.0070129226        7.1283380640
  H         5.2071681375        6.7448541963        0.1838996508
  H         6.0589395814        8.0873182856        0.8855929556
  C         3.8168045506        8.4309123703        0.5212268785
  H        12.4320752880       -1.2470153243       -2.9036859759
  C        13.2948191281       -0.0539276048       -4.2331243569
  H         5.2815928467        8.5570170185       21.9045834749
  H         5.8061547698        9.7844374966       21.0145584684
  C         7.3885637043        8.8804874456       21.9476294051
  H        18.1326339341        5.7212220044        8.1299176544
  H        18.2249781871        7.0284394729        7.0273098579
  C        20.0321269542        5.8919438388        7.0630314542
  H         3.6085001808        8.3170272260       -0.5317381244
  H         2.9763570428        8.1621678612        1.0965772027
  C         3.9250408696        9.8888864366        0.9450074070
  S        13.8203565078        1.4838046927       -4.8851893941
  C        13.2746919642       -1.1366356480       -5.2412711783
  H         7.1901608127        8.3454127732       22.8861750362
  H         7.5913420968        9.9500662630       22.2102007961
  H         8.1855102131        8.4369226575       21.4406590907
  H        20.3653244700        6.4700504799        6.1511026120
  H        20.4940276731        6.2334916314        7.9707506044
  H        20.3231457681        4.8823103572        6.8529912240
  H         4.4846139307       10.4345095451        0.1186918236
  H         2.9712068473       10.2630254032        0.8895556264
  H         4.3728032595       10.0180156591        1.9259384204
  C        14.1689358958        0.6837033249       -6.3738966087
  N        13.7851338582       -0.6068850474       -6.3836975773
  O        12.8331896575       -2.2889304961       -5.1175832049
  S        14.6338434306        1.3225941002       -7.9318803265
  C        13.7098534306       -1.3418626497       -7.6220607547
  H        13.9264160416       -2.3934992796       -7.3703117136
  H        14.4603272137       -1.1112107742       -8.4184489434
  C        12.3623415862       -1.3763824197       -8.2036906225
  H        11.5002943905       -1.4016391341       -7.4725391713
  H        12.2981032789       -2.2655941142       -8.8015817721
  H        12.1565807641       -0.6456236200       -8.9483501445
  H        -3.2265923334       15.0061875508       15.6147003966
  C        -3.2127648650       14.0373349891       15.9609146583
  H        -4.1988875213       13.7178182968       16.1711257130
  C        -2.5666092769       14.0595374421       17.2949285472
  C        -2.4765860360       13.0061385182       15.0908816677
  C        -3.3249688684       13.4215524952       18.5453657010
  H        -1.5684232585       13.7084591599       17.2119559997
  H        -2.4148571787       15.1387480042       17.4576497686
  H        -1.5752881603       13.4889005184       14.6817743213
  H        -2.1733075132       12.1074785071       15.5879323952
  H        -3.0115569599       12.7264887175       14.1747751141
  C        -2.2187228637       12.9708622153       19.4799135002
  H        -3.9288187153       12.6418533078       18.2880661753
  H        -3.9321283480       14.2721171730       18.9968726727
  C        -2.6292279890       13.1229962206       20.9445460282
  H        -1.9194028592       12.0189772899       19.1393692697
  H        -1.3041578390       13.6961487422       19.3455622379
  C        -1.5425234484       12.4489195602       21.8219734703
  H        -3.6012503025       12.6888253734       21.2597027148
  H        -2.7752634213       14.1104141716       21.3229304887
  C        -0.3367389098       13.3689443728       22.0546708653
  H        -1.9443396479       12.3335613783       22.8542930196
  H        -1.2726555616       11.4928471026       21.4426679170
  C         0.8169661300       12.7783652611       22.9179777682
  H         0.1151474192       13.7394037169       21.0946244244
  H        -0.7203585714       14.2757395477       22.5140756060
  C         1.3168141195       11.4585880727       22.2673042874
  C         0.4468402783       11.9946290703       24.1596715452
  C         2.0152910560       13.7968623307       23.0262254905
  C         1.1539303340       10.3402335436       23.0766516348
  C         1.8755722194       11.0595539105       21.0054251506
  C         0.7037543922       10.6913796436       24.3155640863
  C        -0.0722302577       12.6285594287       25.2755650398
  H         2.0086099962       14.3156498791       22.0060966806
  H         1.7857449766       14.6579488218       23.6257388054
  C         3.3587790736       13.2071359925       23.3308148860
  S         1.6083168583        8.8370600741       22.3490537310
  C         2.0730135779        9.7431434146       20.8896217411
  H         2.0787683076       11.7696380853       20.2710500241
  C         0.3030866969       10.0733404801       25.4249621957
  H        -0.1966455739       13.7183352054       25.2676369672
  C        -0.3792850998       12.0280762262       26.4875231727
  H         3.4657812728       12.5166392618       22.5547719153
  H         3.2900619302       12.6353307150       24.2129657923
  C         4.4478842077       14.2183523577       23.3190210852
  C         2.5396182734        9.0159314278       19.6426800917
  C        -0.2741892806       10.6890831562       26.5936786820
  H         0.5540988532        9.0334245977       25.5954666421
  C        -0.6810529769       12.4014056006       27.7493386357
  H         5.4393399058       13.8586768581       23.7040514917
  H         4.2328579145       15.1972613422       23.9096551438
  C         4.9060414338       14.5155563791       21.8532200272
  C         2.3779948128        7.6069063503       19.4177210590
  C         2.9364654376        9.8874009624       18.5027763718
  C        -0.4995470743       10.0448466889       27.9285981510
  C        -0.7592688958       11.3512056890       28.6560605374
  S        -0.9199806997       13.9743599179       28.4900228250
  H         5.4090464674       15.4810951706       21.8776771526
  H         4.0877368608       14.5992335638       21.1267737103
  C         5.9468104870       13.4827339108       21.4492331818
  N         1.9070871092        6.6425416746       20.2734368835
  C         2.7048115090        7.0381016991       18.1649196344
  C         3.3112686255        9.2679176744       17.2908197499
  H         3.3208560933       10.8597090977       18.7514041360
  C         0.8047039886        9.3781208552       28.4850207425
  C        -1.7396685893        9.1533710156       27.9515726338
  C        -1.0656049502       11.7701953205       29.9755020781
  C        -1.2155110943       13.1309734403       29.9771128197
  H         6.9397558962       13.9490738752       21.5690607113
  H         5.9560183522       12.6723159654       22.1275001071
  C         5.8883345839       13.0176931443       19.9740747464
  S         1.9284769914        5.1651488410       19.5619258417
  N         2.4531629686        5.7180498844       18.1594013637
  C         3.3320536616        7.7599878891       17.1301178549
  H         3.7741124606        9.8437417227       16.5057409835
  H         1.1971595081        8.6485127576       27.7611801992
  H         0.5921955674        8.8706550619       29.4354323597
  C         1.9930269958       10.3774388483       28.7863330402
  H        -1.5360265701        8.3081468268       27.3684644941
  H        -1.8837487899        8.7486975106       29.0141305791
  C        -2.9995569610        9.7892981205       27.3405960422
  H        -1.1273281757       11.0901522512       30.8590888705
  C        -1.5497519889       13.9552414821       31.2971355144
  H         4.9343416737       13.2427700735       19.4488734600
  H         5.8149348826       11.9259380960       19.7815909052
  C         7.1102135683       13.6575061326       19.1974431588
  C         3.5905429601        7.0838012683       15.8998370027
  H         2.3484484831       10.8106470427       27.8754564203
  H         1.6017439717       11.1814961358       29.4070927540
  C         3.1444034969        9.6625718533       29.4937671154
  H        -2.7066267162       10.2830148187       26.3906582492
  H        -3.3893866589       10.5651403017       27.9548540579
  C        -4.1049714524        8.8342199485       27.0327733366
  C        -1.6038833220       15.3594219490       31.4424454674
  C        -1.7819966978       13.1008202404       32.4747304352
  H         7.1234352158       14.7551689533       19.3113716140
  H         8.0492782381       13.3038040478       19.5882399954
  C         7.1778011767       13.4951398391       17.6536515471
  H         3.4015181750        6.0621209279       15.9523300560
  C         3.8539120491        7.5635878197       14.6226527359
  H         3.7270989902        9.2039628613       28.6902256094
  H         2.7653245240        8.8447430760       30.1024133661
  C         4.0486431399       10.4926444272       30.4273334100
  H        -3.8180655223        8.4981825219       26.0306942486
  H        -4.1607314982        7.8963263077       27.6194785331
  C        -5.4007310307        9.5854892549       26.9274669574
  N        -1.3968838192       16.2444870762       30.4292777896
  C        -1.7818828367       15.9025092433       32.6810345544
  C        -2.1276048041       13.6743647004       33.7089293652
  H        -1.6769652567       12.0429401878       32.5216864517
  H         6.2879852421       13.9139236781       17.1637448309
  H         7.9530294004       14.1683951958       17.2463115406
  H         7.2161839311       12.5085653388       17.2626571906
  S         4.1152377651        9.1728467946       14.0419673772
  C         3.9925969580        6.5653007764       13.5965585353
  H         4.2025715220       11.4425294797       29.9367285210
  H         3.5447121384       10.5959768925       31.3634716745
  C         5.3872878621        9.8581294071       30.7722408900
  H        -5.4478845424       10.3909490769       27.6358045891
  H        -6.0750555182        8.7509839994       27.1745044562
  C        -5.7236617452       10.0248019672       25.4445366725
  S        -1.5012571456       17.7552996748       31.0271173393
  N        -1.6853440677       17.3189508224       32.6199179898
  C        -2.0433999483       15.1681007438       33.8566964116
  H        -2.1918753172       13.0273766603       34.5036344813
  C         4.2747196925        8.5155419034       12.4802371930
  N         4.3111639064        7.1597313851       12.4201624588
  O         3.8579870850        5.3598664835       13.6948670004
  H         5.8239171923       10.3581840066       31.5778556972
  H         6.1097933899       10.0330746272       29.9988887162
  C         5.3216010997        8.3390469926       31.1108893585
  H        -5.0324036700       10.7460985564       25.0197136281
  H        -5.8452220018        9.1851671969       24.7861252391
  C        -7.0009650817       10.7937080887       25.4584070950
  C        -2.2133838752       15.9365573085       35.0451266743
  S         4.6195137954        9.4785120158       11.0637010548
  C         4.4753328325        6.3817512942       11.1840206647
  H         4.6661104368        8.2635400084       31.9660213155
  H         4.9299060109        7.6794843611       30.2894870180
  C         6.6181084902        7.7359537537       31.5502472000
  H        -7.1054662783       11.2431878989       24.4865999735
  H        -6.8999387666       11.5833360116       26.1833009989
  C        -8.2443498827        9.9862283720       25.7225207489
  H        -1.8974090781       16.9268999572       35.0313378165
  C        -2.7301733046       15.5887276486       36.2797820430
  H         5.1677996160        6.8180809298       10.4799740554
  H         4.8850491921        5.3559984987       11.3859692279
  C         3.1430149224        6.3182336950       10.3839122347
  H         6.9984539675        8.2668693674       32.4218939867
  H         7.4649124522        7.8484429948       30.9165107899
  C         6.3775886778        6.2589489746       31.9139028300
  H        -8.3723681807        9.2357310853       24.9682444472
  H        -8.2366634802        9.6356384975       26.7495235156
  C        -9.3864199297       10.7689113205       25.7121804228
  S        -3.4485885712       13.9896052238       36.6516306311
  C        -2.7709578455       16.6632858221       37.3934089493
  H         2.9963591202        7.2202562188        9.6432822883
  H         3.0553652060        5.4774473759        9.7146013280
  H         2.2772095158        6.2953539587       11.0317350207
  H         6.7411129764        6.0446167273       32.8643233551
  H         6.7712640059        5.5302535779       31.2410336789
  H         5.3484878833        6.1224072224       32.1181683452
  H        -9.1695163559       11.7928815071       25.4119174893
  H        -9.8916047384       10.9961008778       26.6293775886
  H       -10.0494714161       10.3706897697       24.9353532884
  C        -3.9283651363       14.7939672573       38.1890389951
  N        -3.4525328556       16.1146235374       38.3885851901
  O        -2.4437299885       17.8506191282       37.2205997576
  S        -4.7512715038       14.0562276552       39.6135493017
  C        -3.6824072786       17.0047051379       39.5075579115
  H        -3.4454778563       18.0664806575       39.3125545066
  H        -4.7512808858       17.0590108260       39.6998816475
  C        -3.0635751651       16.5781710925       40.8784619143
  H        -2.2232479292       15.8781656240       40.8133436076
  H        -2.5859328702       17.4483885065       41.4409490739
  H        -3.8078428489       16.2567879705       41.5649455296
