352
i=
  H         3.3023925861        3.7288399363       12.2291030709
  C         3.2278305600        2.6722449757       12.5231808031
  H         2.2072752805        2.4415819888       12.1499466705
  C         4.3634383054        2.0149920590       11.7247902563
  C         3.2778821543        2.3372879236       14.0809039653
  C         3.9868829399        2.0426799492       10.2433099844
  H         4.6826916460        1.0817871277       12.0844293478
  H         5.3170867136        2.6285864298       11.8034377065
  H         2.4154381921        2.7299097181       14.6070172551
  H         4.2694890581        2.6231908894       14.4512261579
  H         3.1741860970        1.2707018170       14.1722183203
  C         4.9546716589        1.2071181431        9.4076842217
  H         3.0068889376        1.6144864535       10.0828742046
  H         3.8992309109        3.0708452491        9.9468003797
  C         5.5927085561        1.9495777689        8.2309537487
  H         4.4113064617        0.3047819817        9.1075062880
  H         5.8817068730        0.9288078350        9.9935525023
  C         6.7607464460        2.8469408061        8.6696753574
  H         4.9334175505        2.5288945252        7.5882047694
  H         5.9359515426        1.1673706081        7.5623038570
  C         8.0024757130        2.1115926906        9.2061933132
  H         7.1024996668        3.4502122732        7.8589445127
  H         6.2507572155        3.4905617810        9.4661639232
  C         9.1901071602        3.0820905746        9.4977219913
  H         8.3543342049        1.4324933046        8.3997814719
  H         7.8326394387        1.5827756780       10.1162851731
  C         8.8123112432        4.3837116553       10.0612458312
  C         9.7206770190        3.7651987141        8.2235595181
  C        10.2920753575        2.3879655907       10.3540718080
  C         9.0603586389        5.4679519792        9.2096654807
  C         8.3227388013        4.8850638603       11.2689920207
  C         9.5855382470        5.0646985304        8.0047209138
  C        10.3215990784        3.1585793693        7.1185719921
  H         9.7627188421        1.8214204575       11.1682995650
  H        10.6974946725        1.5582529321        9.8665853430
  C        11.4987959331        3.2747509070       10.8003191262
  S         8.7588863062        6.9911651122        9.9053856785
  C         8.2242906695        6.2565415450       11.3440895470
  H         7.9193957172        4.1913536235       11.9735010033
  C         9.9320844526        5.6959732751        6.8729741879
  H        10.1980891510        2.0542654863        7.0255182788
  C        10.7146849179        3.7669827905        5.9419318419
  H        11.2507111497        4.3170246804       11.0657480215
  H        12.2250429757        3.3940805645       10.0151176844
  C        12.2169540274        2.7135417281       11.9816631385
  C         7.7202922340        7.0142203491       12.5762305652
  C        10.5235210493        5.1031656549        5.7831674093
  H         9.6927490795        6.7090854706        6.8084276071
  C        11.0553481234        3.4064631221        4.6429107530
  H        12.8464139202        3.6173034757       12.2899667011
  H        12.9301667354        1.9923439272       11.6679284659
  C        11.5111231702        2.2864102159       13.1889076574
  C         7.5878550302        8.4254167249       12.7283732966
  C         7.3388115717        6.1164783372       13.7620096003
  C        10.8064496088        5.8089003921        4.4608658215
  C        11.1767533560        4.4793419753        3.7659787186
  S        11.3019700812        1.8286733058        3.9921258590
  H        10.5049235872        2.6422156068       13.1919331900
  H        11.4949826049        1.2413071597       13.2449606828
  C        12.2359795349        2.7266460535       14.4459993473
  N         7.9446585623        9.3074719544       11.6852267109
  C         7.2798741884        9.0103060683       13.8960626743
  C         7.0843256515        6.7796359737       14.9912236324
  H         7.2386842242        5.0605322465       13.6360854670
  C        12.1017253503        6.6380339603        4.6054552939
  C         9.7109847174        6.5976105438        3.6980246763
  C        11.3337442379        3.9430326298        2.4624831704
  C        11.5436881804        2.5947035951        2.4187737555
  H        12.3395666448        3.7746949347       14.7254644227
  H        13.2686720105        2.5084815587       14.2973076398
  C        11.6259186802        1.9987440126       15.6748491754
  S         7.7505584131       10.7995425896       12.2429603766
  N         7.2267766429       10.3839964138       13.7569191230
  C         6.9963802879        8.2990889912       15.0947579860
  H         6.8449128460        6.1757232706       15.8251828212
  H        11.9267979522        7.3234012595        5.4517178895
  H        12.1418959904        7.3236408974        3.7618069678
  C        13.4280555121        5.8327252240        4.7943838449
  H         9.5119170623        7.5688581717        4.1610477428
  H        10.0406683224        7.0159594121        2.6567642886
  C         8.4107358394        5.8172005377        3.5600249424
  H        11.2718495458        4.6659622663        1.6857094474
  C        11.7430142864        1.7616840480        1.2112301463
  H        10.7526842637        2.6103502637       15.9069431984
  H        11.2674618730        0.9649627725       15.5622839640
  C        12.4769757749        2.0940623346       17.0097701659
  C         6.7090145158        9.0217011196       16.3065636024
  H        13.2918649627        4.9195485879        5.4351310556
  H        13.8238283233        5.4568044978        3.8952284692
  C        14.5054261311        6.7487069079        5.4295931514
  H         8.0528597812        5.4308010446        4.4948652620
  H         8.5452862245        4.9392990483        2.9484000884
  C         7.3144366792        6.8408773528        2.9645430124
  C        11.7339035750        0.3763727751        1.1434203134
  C        12.1306380649        2.5373538455       -0.0230303471
  H        13.2994788090        1.3889828568       16.9777899797
  H        11.7518401629        1.8010667988       17.8113926284
  C        12.9693872850        3.4693049937       17.4521878519
  H         6.7520931952       10.1405129086       16.1862281688
  C         6.4446893092        8.5759474377       17.6348620971
  H        14.0212282124        7.4886470601        6.0308126054
  H        14.9216834027        7.1806334043        4.5959757469
  C        15.4020554909        5.7911847559        6.2506702548
  H         6.8165106802        7.2681041330        3.8176984935
  H         7.7326524976        7.6317423847        2.3986418048
  C         6.3045480441        6.0916377179        2.1040196505
  N        11.5568856498       -0.4950052547        2.2562330001
  C        12.0022987875       -0.3001539107       -0.0164511560
  C        12.3983744076        1.7812273034       -1.1568149690
  H        12.0901270356        3.6098336628       -0.1381407247
  H        12.4563147168        4.2845121365       16.9648539352
  H        13.9742613837        3.6278245871       17.1291476133
  H        12.8912535038        3.6538098218       18.4913261513
  S         6.1796460666        6.9649875573       18.1505853970
  C         6.4473941729        9.6080630137       18.7223207846
  H        14.8853771036        5.5759606008        7.1358495745
  H        15.5454119710        4.9278709019        5.6498976650
  C        16.7376310176        6.4360483320        6.5201585264
  H         5.9393931806        5.2351007648        2.7225922899
  H         6.7703121408        5.6786372595        1.2458774049
  C         4.9869066883        6.7608048748        1.7562563139
  S        11.5959580203       -2.0033461668        1.7662381888
  N        11.9459992419       -1.6380029486        0.2357197282
  C        12.1982147206        0.2975519032       -1.2643025255
  H        12.5777001196        2.3683133003       -2.0764972645
  C         5.7792578447        7.6874000425       19.6856938492
  N         6.0653896940        9.0153226280       19.8412841372
  O         6.7601936442       10.7975193499       18.5878698947
  H        17.1559103052        6.7597864328        5.6222539062
  H        16.5163380239        7.2829667941        7.1319549179
  C        17.4815136214        5.3784846533        7.2188119539
  H         4.3693290851        6.0771395110        1.2228129089
  H         4.3606480873        7.0461785568        2.5751674210
  C         5.1616180165        8.0137587855        0.9144099012
  C        12.5993160045       -0.5773497330       -2.3334775421
  S         5.4561425449        6.9085294105       21.2629924462
  C         5.9061131017        9.7726825494       21.0381411928
  H        16.9997506020        5.0655482696        8.1663600943
  H        17.5821359128        4.5249556497        6.5459953895
  C        18.8450305447        5.9113391390        7.4953984239
  H         5.0682727944        7.7688014942       -0.1570638088
  H         6.1379400957        8.4304706785        1.1391877215
  C         4.0893293783        9.0450923368        1.1225683679
  H        12.2734588360       -1.6100620591       -2.3286499025
  C        13.1231402213       -0.3970143167       -3.6097029978
  H         5.0478887259        9.3592590608       21.5455172228
  H         5.6250303285       10.6979131242       20.8994601877
  C         7.2107275774        9.7079164761       21.8613206764
  H        19.2369622040        5.3287632969        8.3394564209
  H        18.7338665776        6.9458816403        7.8812028274
  C        19.7168080953        5.9619028973        6.2141739734
  H         3.8405069641        9.6961688962        0.2916208288
  H         3.2077573412        8.4094450053        1.4117106726
  C         4.3571040396       10.1337676942        2.1462182175
  S        13.6348286750        1.1835054712       -4.1571919281
  C        13.4013191930       -1.5334259657       -4.5452899160
  H         7.1234512245        9.1566992959       22.8069072009
  H         7.3736262043       10.7514663358       22.1457574819
  H         8.0852477130        9.2533531255       21.3414375761
  H        19.3629661037        6.6926235361        5.3929404911
  H        20.7542781198        6.1994696137        6.3579005494
  H        19.7562746319        5.0154800841        5.6804511028
  H         3.7942694421        9.9652688875        3.0192162730
  H         5.3900028059        9.9880152140        2.3702602597
  H         4.2584433664       11.1846506086        1.7818458470
  C        14.2902252032        0.3465135217       -5.5909957830
  N        14.0382011958       -0.9735425141       -5.6567310347
  O        13.0877093058       -2.6996639610       -4.3778466297
  S        15.0715640414        1.0724079315       -7.0027182643
  C        14.1100686588       -1.7310390665       -6.8570358384
  H        14.0483123457       -2.8204880519       -6.7071651433
  H        15.0193049794       -1.5872941688       -7.3304282252
  C        12.8760937281       -1.5205214275       -7.7068418615
  H        12.8690366488       -0.4973726529       -8.0406444070
  H        11.9945059816       -1.8188464465       -7.1487224376
  H        12.8713149512       -2.1402834311       -8.5809710216
  H        -2.6461379452       15.5822889569       16.4180421778
  C        -2.5552601193       14.4813622251       16.4370083166
  H        -3.4733577988       14.1432027833       16.9260350795
  C        -1.3819607053       14.1926638807       17.4241931978
  C        -2.3888332081       13.9374677961       15.0556129757
  C        -1.7768765526       13.2953732605       18.6625449462
  H        -0.6362626421       13.6463680375       16.8441630560
  H        -0.9031083267       15.1325803718       17.6910925857
  H        -1.4785565517       14.3998524061       14.6546168620
  H        -2.2049064085       12.8448250552       15.1601962766
  H        -3.2014063601       14.2389643665       14.3236885334
  C        -2.2070259020       14.1471594464       19.7865370114
  H        -0.8580180909       12.7357153901       19.0230296215
  H        -2.5571952938       12.5944002838       18.3621321484
  C        -2.3833693886       13.6185735813       21.1952059742
  H        -1.4380370257       14.9650675231       19.8713606827
  H        -3.1885086055       14.5577981664       19.4817215872
  C        -1.1849540352       12.8779731490       21.8120904542
  H        -3.2575523977       13.0151087137       21.1117132616
  H        -2.6062038350       14.5427671735       21.6834757404
  C        -0.1150725156       13.8331026036       22.4142456883
  H        -1.4415425128       12.1774734710       22.5841513426
  H        -0.6700414225       12.3405936820       21.0015208380
  C         1.0682525195       13.1589660818       23.1728701499
  H         0.4292144113       14.3159689545       21.6053298284
  H        -0.6684096463       14.5829886448       23.0425595808
  C         1.4309899016       11.8210708891       22.4767714956
  C         0.5939046795       12.4013622649       24.3498331248
  C         2.3696089858       14.0116071961       23.3232913452
  C         1.2421472606       10.7314037207       23.2419858814
  C         1.9970152585       11.4750736321       21.2550977857
  C         0.7838053089       11.0575803699       24.4755348554
  C         0.0846336117       12.9629215533       25.5147381362
  H         2.4630439199       14.5860805871       22.4367902092
  H         2.1981121846       14.7829075616       24.0123087162
  C         3.5720187490       13.1723604553       23.7000069328
  S         1.6617080155        9.2483273770       22.4879585979
  C         1.9369178620       10.1045308139       21.0903663034
  H         2.0910173811       12.2395585288       20.4691066512
  C         0.5324491819       10.4826998555       25.6832650713
  H         0.1296309515       14.0497037091       25.4601028480
  C        -0.1979377175       12.3520197425       26.6769530508
  H         3.9731340569       12.6318770767       22.8417436301
  H         3.4130802611       12.4335687033       24.4635634855
  C         4.8341976360       14.0243544193       24.1294172758
  C         2.3847487817        9.3738473488       19.8182195079
  C        -0.0084964678       11.0319631313       26.8063551027
  H         0.5893690243        9.4132454250       25.6153657712
  C        -0.6560894008       12.7327994408       27.9193648331
  H         5.6133188152       13.3026524132       24.5101344018
  H         4.5910653371       14.7711647180       24.8705707000
  C         5.5001525588       14.7001281078       22.9211806667
  C         2.2453404463        8.0047907854       19.5472683779
  C         2.8575540346       10.1825682865       18.6375715900
  C        -0.4031351165       10.3675864884       28.0111765636
  C        -0.8006552761       11.6737725263       28.7642822552
  S        -1.0476502220       14.2306379005       28.7342040145
  H         5.8560852941       15.6908702521       23.2534792855
  H         4.6778651605       14.8127588026       22.2720803277
  C         6.5544916945       13.9484802230       22.1470299118
  N         1.9809036614        6.9853109583       20.4089200748
  C         2.6148881128        7.4443256115       18.3255816792
  C         3.2329555525        9.6690771270       17.4377613988
  H         3.0471527702       11.1998688867       18.8748811175
  C         0.6450874754        9.6311692316       28.7448761287
  C        -1.7446258301        9.5863930022       27.7968338074
  C        -1.3008968191       12.0409990044       30.0776321992
  C        -1.3526138489       13.4056694685       30.1434106278
  H         7.4629584048       14.5317227670       22.2616180699
  H         6.6923791714       12.9150544368       22.4825632159
  C         6.1928702854       13.8671060696       20.6224469178
  S         1.8766387597        5.5422422140       19.6394948785
  N         2.4604367285        6.0897088201       18.2507074496
  C         3.0664962738        8.2522149195       17.1760634528
  H         3.5589434267       10.3571678509       16.6216020954
  H         0.9735954229        8.8961741026       27.9956437586
  H         0.3096345356        9.1684120673       29.6503599045
  C         1.8725969747       10.4704351450       29.0060095742
  H        -1.3968666150        8.7352632895       27.1472399888
  H        -2.0192960478        9.1647906682       28.7254317774
  C        -2.9116470655       10.2362110029       27.1148685586
  H        -1.5532894138       11.2335997190       30.7454521890
  C        -1.6354174005       14.2411957439       31.3906485652
  H         5.6551555393       14.7068637746       20.3023052305
  H         5.5034647189       13.0795250728       20.3681770027
  C         7.5026233429       13.6007029624       19.8090532501
  C         3.3052870332        7.5631874259       15.9734201632
  H         2.3301931587       10.6718538326       28.0431761164
  H         1.5530194621       11.3849250055       29.5024361276
  C         2.8863943376        9.6387081667       29.8035527154
  H        -2.5035411391       10.5061128119       26.1218766659
  H        -3.1334205192       11.1817508549       27.4278070801
  C        -4.1225203084        9.3542979492       27.1764267633
  C        -1.6877367579       15.6577135047       31.4544707309
  C        -1.8874155998       13.5074071782       32.6796480290
  H         8.1581170428       14.4994820844       19.9933344821
  H         8.0133982862       12.7042411995       20.1341380779
  C         7.1497457826       13.5591281532       18.2731740109
  H         3.3827103441        6.4739803479       16.0436091628
  C         3.6049268871        8.0029291119       14.7642404850
  H         3.1713196171        8.8102685738       29.2281464556
  H         2.4324804220        9.2413887277       30.6945359619
  C         4.1615397396       10.4153245024       30.1727321322
  H        -3.9757432471        8.4908799634       26.4865829277
  H        -4.1633010828        9.0549470137       28.2713847809
  C        -5.3723168499       10.0022674313       26.9069982780
  N        -1.4044643344       16.5460364755       30.3673051309
  C        -1.9879027616       16.3478320859       32.6344468398
  C        -2.1581849348       14.1946024152       33.8796911041
  H        -1.9733870583       12.4646476998       32.6698158565
  H         7.8463591700       12.9747629351       17.6616779738
  H         6.1646082663       13.1061171339       18.0029512081
  H         7.2096290952       14.6098789352       17.9679324114
  S         3.7942369827        9.6172580256       14.2768307086
  C         3.7725170519        7.0181238540       13.6553963773
  H         4.1440498196       11.5334337620       29.8474182588
  H         4.0920600634       10.4676916894       31.2439601135
  C         5.4648368189        9.6508456019       29.8241858836
  H        -5.4521844932       11.0304282235       27.3065286780
  H        -6.1830709072        9.5101952871       27.4335613309
  C        -5.6193100667       10.1342347534       25.3709774064
  S        -1.4270788616       18.0550510899       31.0131462694
  N        -2.0970718454       17.6961123658       32.4213181060
  C        -2.3157749355       15.6654484922       33.8237606625
  H        -2.3588880442       13.6670075869       34.7817662657
  C         3.9605260994        9.0192674021       12.5889517902
  N         3.9923309495        7.6893136909       12.4816935901
  O         3.8186907589        5.7914396752       13.9116141692
  H         6.1879834895       10.3627766108       29.8036509555
  H         5.2447235936        9.1972640780       28.8720241056
  C         5.7286643711        8.6179266690       30.8635070534
  H        -4.8237645088       10.7006581033       24.7736713696
  H        -5.7600652525        9.2086579829       24.9038974293
  C        -6.9209241788       10.9579060399       25.0517626362
  C        -2.6977880107       16.5535034643       34.8648523358
  S         4.5267378051        9.9160970947       11.2390463688
  C         3.9880920712        7.1024984999       11.1500475557
  H         6.1696606219        9.1778194827       31.7165360817
  H         4.7551404366        8.2035594211       31.1913804592
  C         6.6619442211        7.4898729053       30.4209943839
  H        -6.9247024370       11.1725806913       24.0069045449
  H        -6.6354229705       11.8993948531       25.5290838555
  C        -8.2847656932       10.4743567940       25.5763430244
  H        -2.2501238472       17.4815527846       34.8370799095
  C        -3.3325478732       16.2623178296       36.0926561221
  H         4.7219418656        7.6638504852       10.6072650328
  H         4.4975099064        6.1769596080       11.2357140954
  C         2.6219034512        7.1764664492       10.4039143801
  H         7.6845558331        7.7495826416       30.5953476838
  H         6.6600696047        7.3861455416       29.3560061006
  C         6.4191480957        6.2024861443       31.1395767265
  H        -9.0337943299       10.5057514962       24.7756553780
  H        -8.2720447274        9.4650582095       25.9453604363
  C        -8.7437123871       11.2815281113       26.8028614604
  S        -3.9512404740       14.7706286319       36.7120050836
  C        -3.2330906215       17.3067232296       37.0997052932
  H         2.2678730992        6.2065835557       10.0771288889
  H         1.8016028017        7.4275555922       11.0519628657
  H         2.6886866175        7.7466466015        9.4807934011
  H         5.4642913155        6.2056993578       31.6301170564
  H         7.0928543777        5.9627686587       31.9573445103
  H         6.5418650831        5.3951538969       30.4490136125
  H        -8.4517118519       12.3574211432       26.6812727783
  H        -8.2478733094       10.8971739802       27.6984393412
  H        -9.8318012010       11.3805912717       26.9633164056
  C        -4.3100429252       15.6449602155       38.1824445045
  N        -3.8759667935       16.9395755552       38.2428291851
  O        -2.8106270104       18.4470211143       36.8649498888
  S        -4.9651672963       14.9851857534       39.6725299552
  C        -3.8029132903       17.8396654868       39.3932677140
  H        -3.6353957248       18.8302085586       39.1105755776
  H        -4.8124436967       17.7830192504       39.8343928314
  C        -2.6735927183       17.5105783384       40.3893007188
  H        -3.1008250720       16.8624380554       41.1370087439
  H        -1.8878541349       16.9803631549       39.9174171128
  H        -2.1301912622       18.3477450097       40.9286332949
