352
i=
  H         4.8332955110        1.7991925921       12.4423060809
  C         3.9811592661        2.4027583472       12.6441054588
  H         4.2709807789        3.4077018647       12.7125129185
  C         3.0757567254        2.5897633887       11.4163321970
  C         3.1467439250        2.1499136651       13.8927903950
  C         3.8342810227        2.8639286405       10.1248489141
  H         2.4277472040        3.4517563609       11.6472958041
  H         2.4959223640        1.7680289398       11.2417243371
  H         2.6699249642        1.1933447230       13.8641905497
  H         2.4404186635        2.9061369718       14.0518135267
  H         3.8259702941        1.9387865019       14.7219636172
  C         4.5257239937        1.5589321661        9.5575858501
  H         3.0218856642        3.0685749938        9.4430326705
  H         4.4309067164        3.6977672541       10.2584772939
  C         5.3997180704        1.7900587822        8.3786899776
  H         3.7244551780        0.9035556738        9.2790766175
  H         5.1007334926        1.1380719959       10.3777364950
  C         6.6860264261        2.5968336159        8.5361353274
  H         4.7912702198        2.3312058213        7.6926592755
  H         5.6290678599        0.8451592855        7.8328698188
  C         7.9299670617        1.7096635041        8.9252500713
  H         6.8646810475        3.1185655018        7.6526243428
  H         6.5907058774        3.3777317466        9.2974758670
  C         9.1964735608        2.4837263412        9.2002533781
  H         8.0877816355        0.9630586176        8.2296670658
  H         7.6601710790        1.1778355616        9.8369350219
  C         8.8089395557        3.8667121033        9.8419321209
  C         9.6453168741        3.2192226202        7.9841020909
  C        10.2944593313        1.8477737311       10.0850656640
  C         9.0155510052        4.9992521377        9.1009818628
  C         8.3911333610        4.2479047720       11.1711793426
  C         9.4932348556        4.5757364749        7.8787397970
  C        10.1754918013        2.5943373571        6.8647910079
  H         9.9036891608        1.5477343114       11.0439739993
  H        10.6112413073        0.8879676968        9.6853449234
  C        11.5458026948        2.8178986451       10.3340086343
  S         8.6566342974        6.4912344308        9.8676900040
  C         8.2684659604        5.6101946998       11.3075178745
  H         8.1559522248        3.5029489638       11.8815868327
  C         9.9196359023        5.2583323672        6.7565724207
  H        10.2228966770        1.5384877983        6.8483239428
  C        10.4640766734        3.2301407352        5.7041105162
  H        11.2401456887        3.6977252409       10.8811711362
  H        11.9870129340        3.1791094058        9.4031403002
  C        12.5677839834        2.1236521781       11.2721540439
  C         7.7577395952        6.1934852451       12.5815369200
  C        10.3696172943        4.6027243049        5.5925393436
  H         9.8699312322        6.3722554350        6.7616184613
  C        10.7610873484        2.8246352218        4.4315126333
  H        13.4448535486        2.7245876359       11.2596460682
  H        12.8443467276        1.2135322336       10.8539898961
  C        12.0501833627        1.7484171883       12.6530493922
  C         7.8319122040        7.5748004939       12.8953916446
  C         7.1273474673        5.2734301259       13.5702639761
  C        10.7298944755        5.3541490057        4.3735242699
  C        10.9750451529        3.9759690056        3.6647761849
  S        11.0323042884        1.3229348821        3.6739597997
  H        11.4463754036        2.5387318183       13.0521340505
  H        11.4769765198        0.7870467790       12.6943966991
  C        13.2498749983        1.4581615345       13.5469301843
  N         8.2171959547        8.6270227036       11.9962133644
  C         7.6288917018        8.0699432095       14.1429601585
  C         6.7579406212        5.8003024111       14.7778697627
  H         7.1851286625        4.2505384524       13.3921563092
  C        11.9948650171        6.2663732486        4.3579442280
  C         9.4662914557        6.0551424315        3.8346191104
  C        11.4006604110        3.5291991902        2.4020333120
  C        11.4335711521        2.1733311552        2.2254763599
  H        13.8231022304        2.3826075774       13.7587138691
  H        13.8687326754        0.7507526506       13.0441221611
  C        12.8992148971        1.0510848770       14.9675142119
  S         8.2071036486       10.0614474939       12.7052144181
  N         7.7254982716        9.5212333069       14.1697233307
  C         7.0391487339        7.2450229377       15.1653066933
  H         6.2916792019        5.2830654258       15.6042831396
  H        11.9760649245        6.9348595645        5.2286743970
  H        12.0099352506        6.9611440825        3.5659634693
  C        13.2949380575        5.5232549952        4.4777482184
  H         9.1096951847        6.8581781986        4.5139093134
  H         9.8910162041        6.6288707657        2.9904316636
  C         8.3116353339        5.3046496390        3.3350195246
  H        11.6522595056        4.3123898723        1.7398770367
  C        11.7801566888        1.4434508627        0.9784224975
  H        11.8602416289        0.8219516032       14.9571377088
  H        13.3797939209        0.1182257020       15.2990563645
  C        13.1761129603        2.1260138525       16.0522761474
  C         6.8747473751        7.8937521264       16.4411449541
  H        13.0939961013        4.8297473561        5.2481536715
  H        13.3395554266        4.9273705345        3.5707752417
  C        14.4808381059        6.5257609249        4.6890771258
  H         7.7947626202        4.6458637675        4.0387949563
  H         8.5284686906        4.7741483554        2.4510646665
  C         7.3021089513        6.3409422409        2.7247306977
  C        11.7346082676        0.0722741761        0.8143070727
  C        11.9801919837        2.2561369108       -0.2480794770
  H        12.5241264751        3.0470332753       16.0309446933
  H        14.1709574770        2.5493465744       15.9369378646
  C        13.0601302645        1.6322672481       17.4773188405
  H         7.2460609451        8.8889593072       16.4235137098
  C         6.5557356051        7.4831801033       17.6779479568
  H        14.3350721427        7.2938521591        5.5137049464
  H        14.5736796402        7.2809902438        3.8147914626
  C        15.8060916746        5.8132136171        5.0507554983
  H         7.0105871413        6.9724018792        3.5404990757
  H         7.7603462229        6.9881444919        1.9904290507
  C         6.1358648416        5.8350477652        1.9976640848
  N        11.6365605272       -0.8008528414        1.7920918533
  C        12.0213970114       -0.5565790102       -0.4150656459
  C        12.2990334205        1.6346954784       -1.3993865848
  H        11.9052372226        3.3952819001       -0.2674716363
  H        13.8238230911        2.2202510372       18.0349878472
  H        13.2745695191        0.5928962824       17.6402301004
  H        12.0426975303        1.7707721133       17.8599193364
  S         5.9805185631        5.9579111869       18.1900231112
  C         6.5662445495        8.5816583328       18.6963220084
  H        15.8506840720        4.8217081639        4.5673180016
  H        16.4926517344        6.3631165229        4.4523613620
  C        16.0849974991        5.5865371978        6.5922280973
  H         5.3995815533        5.3963207362        2.7238908938
  H         6.4790881279        4.9025451554        1.5639077498
  C         5.5049200086        6.7601492735        1.0229424745
  S        11.7547515216       -2.3227060139        1.2250899392
  N        12.0636367119       -1.9278332040       -0.3495994328
  C        12.2915374833        0.1550580018       -1.6200727322
  H        12.5835624419        2.3604359205       -2.1466290942
  C         6.0335212371        6.6742879414       19.7470157821
  N         6.2460744774        8.0145875070       19.8746898312
  O         6.7894676503        9.7927350337       18.4848094197
  H        15.8670596998        6.5141613507        7.1605542881
  H        15.2772209892        4.9511818954        6.9009977657
  C        17.4942956001        5.0494444184        6.8002898724
  H         6.2708487843        7.0184234443        0.2709216455
  H         4.8649025553        6.1488132207        0.3442031220
  C         4.8209368386        7.8618880029        1.8251120876
  C        12.7560644799       -0.4898177646       -2.8297613454
  S         5.6251332388        5.7432146892       21.3285591800
  C         6.2867879218        8.7642982804       21.2205055273
  H        17.4536988118        4.5377507169        7.7584166987
  H        17.8279989786        4.3578923204        6.0009177342
  C        18.3430339862        6.2654797852        7.1410032319
  H         5.5406258480        8.2619455170        2.5151114702
  H         4.0825473898        7.3645523725        2.3955654506
  C         3.9592274289        8.8428870703        1.0313270560
  H        12.5421475947       -1.5355922578       -2.8390630632
  C        13.2774657434        0.0026148580       -4.0178610345
  H         5.5779655267        8.3725902316       21.9859118215
  H         5.9212470023        9.7329925572       21.0567610259
  C         7.7088626741        8.9173165257       21.8123368668
  H        18.3654010218        6.5354942492        8.1372027977
  H        18.0693209577        7.1240716966        6.5580519674
  C        19.7903863165        5.9293655600        6.8286221771
  H         3.7828661105        8.3715262316        0.0368218708
  H         2.8866623422        8.9882438280        1.3618772317
  C         4.8055465578       10.0654008289        0.5825774332
  S        13.6008042437        1.5861116196       -4.4700336069
  C        13.5706722158       -0.9962411283       -5.1222980945
  H         8.2620817414        9.7584587844       21.2990177096
  H         8.2805033244        8.0122434409       21.6453749217
  H         7.6059686009        9.3066542509       22.8008435605
  H        20.5170244459        6.7418266239        6.8193920841
  H        20.0836117180        5.2413489925        7.5890934236
  H        19.7885766381        5.5369598963        5.8620523997
  H         4.4943839463       10.8121942304        1.2430426399
  H         5.8736944188        9.9726430973        0.6932983052
  H         4.4671322142       10.5475137899       -0.3598609313
  C        14.2292304766        0.9765223358       -6.0046486151
  N        14.0837744219       -0.3897898875       -6.1496784393
  O        13.3290912906       -2.2043707585       -5.0264820527
  S        14.6767998120        1.8274161039       -7.4044020279
  C        14.5501337920       -1.0703969499       -7.3385574928
  H        14.8151109350       -2.0755564854       -7.0634228590
  H        15.4324926016       -0.7403930511       -7.8643111359
  C        13.3599493439       -1.2847781373       -8.2776826044
  H        13.4288320322       -0.4840412871       -8.9691819709
  H        12.2664321444       -1.2469128394       -7.8567492206
  H        13.4084097510       -2.2053480300       -8.8818421818
  H        -2.8784715800       15.3670515510       16.1395805616
  C        -3.1910779514       14.3473669962       16.3644753290
  H        -4.2447686325       14.4899705004       16.5023434123
  C        -2.6559383694       13.6059696814       17.6325458399
  C        -3.1805565873       13.5405696081       15.0523867686
  C        -2.9500973931       14.1661850761       18.9788086348
  H        -3.0792878087       12.5891327951       17.5271504962
  H        -1.6368951724       13.2144874357       17.5245970006
  H        -3.3780160791       14.1057479749       14.1783248973
  H        -2.2309084679       13.1448167347       14.7970926458
  H        -3.9091434417       12.6598863071       15.0943315947
  C        -2.2133238020       13.3560568965       20.0824741107
  H        -4.0351713625       14.2341030487       19.1924601329
  H        -2.6450234702       15.2098306163       18.9341395967
  C        -2.6407039751       13.8199271688       21.4709751512
  H        -2.2422909484       12.2862748018       19.9416767173
  H        -1.1308109954       13.4859361000       19.9508675303
  C        -1.6649569097       13.1231507704       22.4222329909
  H        -3.7075906999       13.5305692646       21.7372465509
  H        -2.6858660418       14.8839086390       21.6020982898
  C        -0.4196441379       14.0056512752       22.7049681473
  H        -2.2045730753       12.7926514831       23.3959607684
  H        -1.3098467331       12.1461847468       22.1628209612
  C         0.7731767278       13.2804972067       23.2647914634
  H        -0.1017521834       14.3113224051       21.7347711710
  H        -0.6055660562       14.8545935356       23.3246806689
  C         1.1416800646       11.8856933950       22.6291150771
  C         0.4257483967       12.5933313330       24.5752260018
  C         2.0017187023       14.2858948054       23.2647300550
  C         0.9370513916       10.8090895732       23.4386820826
  C         1.6538926556       11.3988451460       21.3878334847
  C         0.4284481209       11.2774377682       24.6424271027
  C         0.0546727846       13.1693497133       25.7510581409
  H         2.0464608544       14.5459762659       22.2276802984
  H         1.7365103357       15.2018279477       23.8813053957
  C         3.3058753215       13.5987784571       23.9590883804
  S         1.4297764341        9.2572293131       22.7778487366
  C         1.8706890700       10.0782994119       21.3095235633
  H         1.6790041167       12.1735752787       20.6549637472
  C         0.1254620623       10.6614597293       25.8548607792
  H         0.0231557995       14.1724952553       25.6386316548
  C        -0.2101616241       12.6333734965       26.9768808113
  H         3.4504361389       12.5316999475       23.8025798464
  H         3.1900845276       13.5371888190       25.0444941455
  C         4.5477828839       14.4119489133       23.6593910181
  C         2.2695663990        9.3998448365       20.0364065603
  C        -0.2502455752       11.2870818750       27.0467112624
  H         0.2347423332        9.5828296844       26.0718855496
  C        -0.7390497784       12.9903504859       28.1964228129
  H         5.2753992225       14.0468322271       24.4027890098
  H         4.4778304930       15.4257929572       23.9341600436
  C         5.1056463778       14.3974260176       22.2902851273
  C         2.3153986744        8.0297947466       19.7320590831
  C         2.7569673119       10.2114901765       18.8360241861
  C        -0.6319360284       10.6093576667       28.3214259650
  C        -1.0054696668       11.9314803422       29.0420600752
  S        -1.1191470308       14.5295181498       28.8938631390
  H         5.9998134952       15.1196780101       22.2350265396
  H         4.3248910602       14.8102050895       21.5970800628
  C         5.6231452417       13.0404057023       21.8746381383
  N         1.8513444378        7.0448604929       20.6846765655
  C         2.7748365035        7.4325401757       18.5563159946
  C         3.2055992234        9.6567979867       17.6541467277
  H         3.1719835745       11.1828747785       19.0289285095
  C         0.4651372014        9.7047269947       29.0462744035
  C        -1.9410804542        9.8448369552       28.0881378841
  C        -1.4138040564       12.3377960273       30.2393328297
  C        -1.4351527021       13.6887018631       30.3783949235
  H         6.7103628265       13.0770891809       22.0119551533
  H         5.2781786860       12.2224258734       22.4630598373
  C         5.3488232009       12.7536176791       20.3258898324
  S         1.9247047250        5.5960647723       19.9172289069
  N         2.4807444891        6.0514972206       18.4634188939
  C         3.1023789995        8.2169905580       17.3592398157
  H         3.5239456915       10.3262026498       16.8663628387
  H         0.8334313752        9.0477036197       28.2417602905
  H         0.1012977638        9.0891280340       29.9065109609
  C         1.6282096302       10.4263696475       29.5759176302
  H        -1.7978653719        8.9524210262       27.5152001828
  H        -2.1932578153        9.3671073752       29.0715322028
  C        -3.1043508317       10.5735121219       27.4915739914
  H        -1.5596238185       11.5461950529       31.0128062941
  C        -1.7374300577       14.4314755505       31.6342812603
  H         4.3796943143       13.0366648557       19.9590393153
  H         5.4726456385       11.6637432281       20.1132264689
  C         6.4338731834       13.4315054540       19.5024142253
  C         3.3239453640        7.6030779320       16.0812495130
  H         2.0786937562       11.0385638894       28.8295464141
  H         1.1903336572       11.0729226496       30.2986890286
  C         2.6938297053        9.4850846351       30.1643006927
  H        -2.7432411778       11.1942460540       26.6940774847
  H        -3.4516468611       11.2995871577       28.2304231970
  C        -4.2154074393        9.6687308850       26.9991361974
  C        -1.8004335160       15.8010107011       31.8020559858
  C        -1.5828987826       13.6532035004       32.9392968164
  H         6.4204820459       14.5236797573       19.6870058754
  H         7.3457973799       13.0072220472       19.8757503236
  C         6.4466746867       13.1603735160       17.9902300388
  H         3.0852567353        6.5635088508       16.1561484413
  C         3.6111529786        8.0503047092       14.8192792547
  H         3.0425701193        8.8052331070       29.4368006923
  H         2.1029890122        8.9203830544       30.9157488797
  C         3.8943096809       10.1969280200       30.8787160298
  H        -3.8912078679        8.9744105634       26.2731540350
  H        -4.7209720357        9.1026726735       27.8064344440
  C        -5.1346720811       10.6150999649       26.2638047431
  N        -1.6421052574       16.7599566149       30.8759531497
  C        -2.0412656324       16.4031497934       33.0419407387
  C        -1.8991942386       14.2722281726       34.1112567678
  H        -1.5243934567       12.5948458774       32.8621136242
  H         6.9070390320       13.8513155768       17.3685988174
  H         6.8671704436       12.2053901450       17.7313095979
  H         5.4706156191       13.2266275718       17.6860471807
  S         3.9465253485        9.6336882823       14.2865520624
  C         3.8941864191        6.9849818787       13.7678527805
  H         4.0614175425       11.1164971936       30.4275478295
  H         3.5861470925       10.4922329618       31.8565382043
  C         5.1993481026        9.4001825319       30.9603638268
  H        -4.7030844340       11.1017787662       25.4083958117
  H        -5.3825328706       11.4113720996       26.8454989462
  C        -6.3431051234        9.9343819452       25.7343500929
  S        -1.7167957218       18.2276347028       31.5081249880
  N        -2.1627558893       17.8427623469       32.9878569449
  C        -2.2254639325       15.7164264122       34.2037627698
  H        -1.9984192002       13.6680166780       35.0172473014
  C         4.4234721009        8.9001016726       12.7673756514
  N         4.3938620416        7.5325152608       12.6610027932
  O         3.6592349184        5.7926001122       14.0266969583
  H         5.8759288651        9.8722136768       31.6887473003
  H         5.5585325882        9.5749185432       29.9153400133
  C         4.9324676301        7.9449905960       31.3908775545
  H        -5.9093078294        9.3657147873       24.9361174207
  H        -6.7530392250        9.2661391138       26.5151639968
  C        -7.3927303788       10.8214163798       25.2267840339
  C        -2.6325557314       16.5334646123       35.3773088959
  S         4.9007988681        9.8594041966       11.3200564630
  C         4.6462576257        6.8739483474       11.3802552817
  H         4.1805220534        7.9730482708       32.1624634242
  H         4.5985075577        7.2547410053       30.5542494466
  C         6.2741641001        7.3276824344       31.9452626551
  H        -6.9911230201       11.4224028328       24.3140097110
  H        -7.5556874837       11.6122897368       25.9503314609
  C        -8.6432920721        9.9949373384       24.8330794986
  H        -2.2848403753       17.5260447390       35.4354936420
  C        -3.0472256233       16.0525226883       36.5981192274
  H         5.3857987795        7.2313481287       10.6568216938
  H         5.0462427602        5.9214765006       11.7557689073
  C         3.3013779167        6.7324852500       10.6303758689
  H         5.9635487995        6.5977705937       32.6464800826
  H         6.9785515278        7.9638203998       32.4462113704
  C         7.0430500720        6.8231823733       30.6795240360
  H        -9.1363526762       10.3880234811       23.9585053788
  H        -8.3191614603        8.9894588247       24.5236534425
  C        -9.5840592909        9.9567963721       26.0030987441
  S        -3.2939355276       14.4180091385       37.0525916278
  C        -3.2990881669       17.0078089112       37.6634006887
  H         3.4531285728        6.3397742499        9.6047230442
  H         2.6798415200        6.0895639829       11.1907029594
  H         2.8538177947        7.7472997130       10.5346307304
  H         8.0545939520        6.5499354672       31.0758903419
  H         7.1593873693        7.7311980405       30.1164445655
  H         6.4980499951        5.9921520781       30.1763345569
  H        -9.2470691023        9.2311353140       26.7272435217
  H       -10.5201489100        9.5602724078       25.7424355728
  H        -9.6184534263       10.9000516627       26.5159483555
  C        -3.6919449160       15.0242978875       38.7445491726
  N        -3.7226020331       16.3915145643       38.7469539795
  O        -3.1930345101       18.2600997680       37.5570085163
  S        -4.4439699836       14.2291361154       40.1079662039
  C        -3.8648992193       17.1644786903       39.9738870920
  H        -4.2073010622       18.1845524065       39.7337187735
  H        -4.6607802067       16.7930125158       40.5370994703
  C        -2.6092188115       17.2060919152       40.8326121037
  H        -1.8178563752       17.0763122327       40.1611395670
  H        -2.5202391953       18.1753079369       41.3069581995
  H        -2.6615348217       16.5045985515       41.6847565776
