352
i=
  H         5.1569536612        1.6027336180       13.1845410488
  C         4.3110257546        2.3380207006       13.1889547786
  H         4.7768974111        3.3071497166       13.4498504437
  C         3.3845243326        2.2955666023       11.8721169261
  C         3.6079243615        1.9405315195       14.4920526165
  C         4.2696138548        2.5048739719       10.5406374432
  H         2.5244501443        2.9875624422       11.9011455274
  H         2.9124833842        1.3337419304       11.6783629357
  H         2.8420891926        1.2093218036       14.2681554459
  H         3.1318393613        2.8228992147       14.9086067414
  H         4.1785527878        1.5456606701       15.3287759615
  C         4.8164829050        1.3141679505        9.8314148469
  H         3.8747293771        3.1852743595        9.7637865027
  H         5.2304085540        3.0109444029       10.7319961823
  C         5.4459177732        1.5811704862        8.4721610570
  H         4.1005319349        0.4872519005        9.7438628521
  H         5.5979825702        0.8761186476       10.4936867082
  C         6.6966952463        2.3685965780        8.4488973850
  H         4.7649132495        1.9348672175        7.6694175475
  H         5.7062993973        0.5557609709        8.0803748310
  C         7.9377895172        1.7007963918        8.9074461333
  H         6.7141273981        2.6565994281        7.4909198453
  H         6.5203923814        3.2747711527        9.0806829892
  C         9.1627148276        2.5745030260        9.1262651671
  H         8.2558634956        0.9724847963        8.1691882841
  H         7.7375778564        1.1545053304        9.8106778467
  C         8.8980090842        3.8917016781        9.9208902394
  C         9.5882247674        3.3874976341        7.9217120538
  C        10.3196566295        1.7921148566        9.8574205873
  C         9.2572932813        5.0038249156        9.1949861578
  C         8.2211292730        4.1478885898       11.1397172411
  C         9.6752783349        4.7399717872        7.9215786478
  C        10.0522535021        2.7937833139        6.7718193767
  H         9.9444125039        1.2023614205       10.7046782974
  H        10.6506995227        1.0219352607        9.1296927945
  C        11.5005998336        2.6076795775       10.3961354117
  S         8.8805039794        6.4748108143       10.0805502559
  C         8.2124080043        5.4750087363       11.3635912445
  H         7.8256027128        3.4005926507       11.7393233775
  C        10.0401693663        5.4146241081        6.7750875145
  H        10.0638217812        1.7333981812        6.6785198316
  C        10.4370233538        3.4427063940        5.6562833241
  H        11.0980829153        3.3367017067       11.0490273194
  H        11.9758759529        3.0164435368        9.4996881126
  C        12.5040920568        1.9240965783       11.3164106306
  C         7.8463594521        6.0742391751       12.6862655928
  C        10.3712232947        4.7855236930        5.5655864377
  H        10.2542884511        6.4738313955        6.8155790476
  C        10.8524370266        3.0385224890        4.4112287692
  H        13.3186891403        2.7019187146       11.4080144719
  H        12.8926748149        1.0311761227       10.8279208043
  C        11.8538505429        1.4800582478       12.6743718227
  C         7.7206980983        7.4760841891       12.9287509957
  C         7.4910399950        5.1828750393       13.8691142904
  C        10.6772768136        5.5045396712        4.2989656621
  C        10.9947949323        4.1646102567        3.5903959860
  S        11.3416185201        1.6083917374        3.6258945197
  H        11.0726640711        2.1945340521       12.8264906458
  H        11.1865092347        0.5831214710       12.5395712027
  C        12.8319602835        1.2543677915       13.7908046907
  N         8.1326516555        8.4157200263       12.0266496726
  C         7.3714302135        8.0203370980       14.1667249944
  C         7.1350998763        5.7161311535       15.0644414992
  H         7.4368257270        4.1115225251       13.7931395075
  C        12.0017563144        6.3360930743        4.3751804172
  C         9.5303172251        6.2767848144        3.6864624538
  C        11.5885778763        3.7767799898        2.3246669692
  C        11.5416120226        2.4398138232        2.1514749908
  H        13.1611988410        2.2232635900       14.2241935256
  H        13.6586203792        0.8994494905       13.2757690323
  C        12.3965286297        0.3789483614       14.9554814690
  S         7.8845596049        9.8978047309       12.7120642326
  N         7.4653640504        9.4248524925       14.2183239390
  C         7.0550668105        7.1991924540       15.2377006944
  H         7.0376867952        5.0358351104       15.8829259852
  H        11.8356335430        7.1927578293        5.0133159524
  H        12.2832947178        6.7985377702        3.4134078401
  C        13.2263221093        5.4775028345        4.8427850990
  H         9.2572032152        6.9711315959        4.4168588313
  H         9.9127098518        6.8795188694        2.9228224278
  C         8.3627394142        5.4258176012        3.0729569108
  H        11.7172765834        4.5660520278        1.5672475903
  C        11.9499330720        1.7774398599        0.8668684968
  H        11.4782155475       -0.0556180316       14.7199768267
  H        13.1368424429       -0.4077418371       15.0461049135
  C        12.1389502634        1.1489170829       16.2515803656
  C         6.8508533523        7.7972944285       16.5150724978
  H        13.0407783461        4.9480041046        5.8221543980
  H        13.5760870020        4.7233215679        4.1355752977
  C        14.4379241286        6.2408181104        5.2916381414
  H         8.0247198590        4.8129320148        3.9008240428
  H         8.8100563312        4.8247592686        2.2459797979
  C         7.1728769247        6.1855479363        2.4490151178
  C        12.0446271635        0.3929533287        0.6590052438
  C        12.0933877438        2.6641938172       -0.4030220071
  H        11.4897602611        0.5567908310       16.8939251887
  H        11.5702564273        2.0849132180       16.0624244382
  C        13.3294076154        1.5787696544       17.0847194506
  H         6.8704550562        8.9102491578       16.4873955044
  C         6.6712759396        7.3776616137       17.8217108187
  H        14.2529888395        6.9866481603        6.0883313926
  H        14.7723056534        6.7960840102        4.4062154023
  C        15.6319581625        5.3670385039        5.6942141743
  H         7.1213533288        7.1242357969        3.0052321019
  H         7.4031920689        6.5272164385        1.4247541551
  C         5.8756771404        5.3694486676        2.5742275855
  N        11.8815581167       -0.5485843413        1.6150354481
  C        12.4300631366       -0.0966070818       -0.5590790978
  C        12.3366101222        2.0967861168       -1.6591073068
  H        11.8530984684        3.6845691818       -0.2352831114
  H        13.2790934550        1.7932187213       18.0974528360
  H        13.6073770926        2.4823223530       16.4907899893
  H        14.1917750628        1.0251751287       17.0075237456
  S         6.3514519410        5.7711160893       18.2666376593
  C         6.6104947522        8.4059999459       18.9536256984
  H        15.3936181147        4.7663818699        6.5919018042
  H        15.9742249826        4.6339059560        4.9638313607
  C        16.8193869169        6.1187905405        6.1434301218
  H         5.5666713356        5.0015517457        3.5694368882
  H         6.0539408958        4.4271354615        1.9740864490
  C         4.8223218985        6.0360226234        1.7911030484
  S        12.0791796033       -2.0204515724        0.9592417466
  N        12.4759873637       -1.4558322381       -0.5324445805
  C        12.6715847547        0.6722926530       -1.7065086564
  H        12.4390263209        2.7601278060       -2.5130751657
  C         6.2234262053        6.3693533107       19.9006965157
  N         6.2522625328        7.7361778594       20.0303397446
  O         6.7744406623        9.6595892401       18.7922696766
  H        17.5192319795        6.4047308723        5.3478438698
  H        16.4951701865        7.1135069140        6.5832454904
  C        17.6707107574        5.2765901652        7.1104800072
  H         5.0075689939        5.8662669013        0.7052716257
  H         3.8851628700        5.4525280202        1.9456364563
  C         4.4178967032        7.5212673359        2.1428327374
  C        13.0958863188       -0.0901760032       -2.8310725903
  S         5.7063647045        5.2803465553       21.1845248816
  C         6.3222988248        8.2599638323       21.3580898672
  H        17.2529395446        5.1573770732        8.1014187301
  H        17.7760611284        4.3008047570        6.6931848896
  C        19.1075734627        5.9009890331        7.3210589456
  H         4.5129715143        7.6749959538        3.2049429161
  H         3.3538711913        7.6508571190        1.9416490118
  C         5.1747242763        8.6251335176        1.3504772758
  H        12.7783844187       -1.0930587907       -2.7337125083
  C        13.7076827626        0.3154682961       -3.9736933235
  H         5.7352705177        7.7137272961       22.1061918364
  H         5.8867267880        9.1885210010       21.3161093628
  C         7.7819137986        8.3045748870       21.8120531243
  H        19.6599917609        5.3320974904        8.0511128571
  H        19.1713905243        6.8866976390        7.7084809960
  C        19.9312950487        5.7718062729        6.0400934957
  H         5.9317569532        8.9079897681        2.0074627415
  H         5.5932144024        8.2657330088        0.4272170250
  C         4.2358425496        9.8669315115        1.1518395133
  S        14.3479291413        1.7995144240       -4.3981417600
  C        13.8120670179       -0.7353285813       -4.9995754570
  H         8.2924050177        7.3569762731       21.8028770450
  H         7.7079844175        8.7445606162       22.7799004416
  H         8.3644739340        9.0575420455       21.2285300524
  H        19.5463744128        6.4462237028        5.2727563606
  H        20.9483128584        6.0486188076        6.1945649463
  H        20.0080669853        4.7434507701        5.7484273010
  H         3.6137067097        9.7086759604        0.2683265003
  H         3.6013019097       10.1201235792        2.0642233461
  H         4.8144353622       10.7742305424        0.9472021983
  C        14.7142090501        1.0713344661       -5.9662807194
  N        14.3123318341       -0.1800807227       -6.0822938596
  O        13.3501762475       -1.8883333850       -4.9441821955
  S        15.1718252817        2.0646060536       -7.4242694385
  C        14.2328607867       -0.9512085359       -7.2940351345
  H        14.6610838397       -1.9853862993       -7.2072213482
  H        14.9523522994       -0.5768609141       -7.9980741600
  C        12.8414555108       -1.0502709612       -7.8836429167
  H        12.8870148832       -0.6718013813       -8.8950018881
  H        12.0067544175       -0.7900378630       -7.2392177642
  H        12.8884908746       -2.0583437616       -8.0804920891
  H        -2.9321983126       14.7913451847       16.3026774998
  C        -2.7762700243       13.6567594734       16.3281455942
  H        -3.7807138021       13.2568979652       16.5251253893
  C        -1.9016097497       13.2352991881       17.5361396114
  C        -2.0843956722       13.1221514446       15.0794894978
  C        -2.3459636598       13.8833379948       18.8041487350
  H        -1.7838340073       12.1120559581       17.6561406646
  H        -0.8583654833       13.5565089677       17.4074411146
  H        -2.2211561429       12.0834850679       14.9922631017
  H        -2.4578383268       13.5540226171       14.0816736168
  H        -1.0654425038       13.3797032857       15.1339281928
  C        -1.3854241368       13.6549842313       19.9946125457
  H        -3.3503186245       13.4962586471       19.0173047658
  H        -2.5053383988       14.9504360202       18.5919296960
  C        -2.1173522409       13.4626400806       21.2935259840
  H        -0.6504665608       12.8570819149       19.7096184009
  H        -0.8173728436       14.6253312705       19.9933650985
  C        -1.1630686108       12.8380175663       22.1812918141
  H        -2.8924867525       12.6952644048       21.3118089606
  H        -2.4505916790       14.3987194564       21.6756561390
  C         0.1014047261       13.6872560288       22.4972595865
  H        -1.5835331146       12.4178380037       23.0692491199
  H        -0.8153824967       11.9762727655       21.5944112319
  C         1.2455869724       12.9222099969       23.2273141766
  H         0.4954110884       14.0660737306       21.5966760144
  H        -0.0314503528       14.5385210109       23.1679627748
  C         1.5938728015       11.5652475535       22.5836363903
  C         0.7783193676       12.2122220462       24.4193193919
  C         2.5121017005       13.8479766018       23.4367359791
  C         1.3492777065       10.4994911931       23.3534428972
  C         2.1037061556       11.2011572485       21.3149586389
  C         0.7907423678       10.8806833443       24.5087305527
  C         0.2192035490       12.8183192387       25.5666552970
  H         2.7886890947       14.4098398945       22.5025894995
  H         2.3274533327       14.5824004705       24.1786256727
  C         3.7532153088       13.1613238196       24.0311002088
  S         1.8203873046        9.0130910493       22.6605199886
  C         2.2682347576        9.8540341352       21.2347077111
  H         2.1572784042       11.9738645183       20.5715307891
  C         0.3663407582       10.1940446425       25.6430459116
  H         0.1606625071       13.8795102297       25.5766962086
  C        -0.1666635582       12.1143017834       26.7671151620
  H         3.9911815706       12.2310700432       23.5736219782
  H         3.4295757671       12.9676953569       25.0364002495
  C         4.9959888343       14.0265402878       24.1187692569
  C         2.6053103817        9.1963068343       19.8792309555
  C        -0.1301976391       10.7645789308       26.8143906568
  H         0.2482756894        9.0549765588       25.5458982067
  C        -0.5569634616       12.5219501410       28.0383943713
  H         5.7524665254       13.6681820082       24.8588576271
  H         4.6645067869       14.9844769161       24.5389489718
  C         5.6288973485       14.2637610378       22.7711383801
  C         2.5005867504        7.7946020504       19.5622484165
  C         3.0062903716       10.0729593347       18.7477652522
  C        -0.5759547795       10.0899830698       28.1033808091
  C        -0.9104719123       11.4470754451       28.7658768576
  S        -0.8285089687       14.0250768955       28.7502788374
  H         6.3442858902       15.0011303296       22.8015037815
  H         4.8506371391       14.5841483498       22.0583572111
  C         6.2947410369       13.0174399600       22.2330291619
  N         2.4178823891        6.7215694910       20.5296278037
  C         2.7986843451        7.2283186664       18.3232923289
  C         3.3250274577        9.4984999721       17.4792397557
  H         3.0955012712       11.1185749134       18.8217120379
  C         0.5550987732        9.3536329944       28.8356367871
  C        -1.8426908750        9.3046526529       27.9041775656
  C        -1.1611082025       11.8234204694       30.0917877889
  C        -1.1828218076       13.2040488352       30.2172627931
  H         7.3073916943       13.4192755691       21.9467349559
  H         6.4578792693       12.2850062056       22.9862481677
  C         5.6754836777       12.3982284857       21.0141714144
  S         2.2957983544        5.3068596403       19.7743254228
  N         2.6954791998        5.8578472004       18.2504406578
  C         3.2270151885        8.0584613822       17.2163263619
  H         3.8156620232       10.1989835978       16.7461531183
  H         0.6787903396        8.5438305851       28.1942727667
  H         0.2138282585        8.9949495375       29.7883980825
  C         1.8337018037       10.0987089748       28.9816464085
  H        -1.6624856556        8.3915155710       27.3895401969
  H        -2.3588603194        9.0481413109       28.8194999648
  C        -2.9374492928        9.9919366262       27.2164703936
  H        -1.2267043553       11.1178403622       30.8734881989
  C        -1.6143596862       13.9850815300       31.3943677573
  H         4.6138464387       12.1358495894       21.1861330259
  H         6.1666626710       11.3835351431       20.8947037902
  C         5.9479909923       13.1238824161       19.7590989025
  C         3.5821525098        7.3586241013       16.0034237418
  H         2.1327000487       10.7045528216       28.1250288676
  H         1.7147008802       10.8153006293       29.7581070328
  C         2.9984713204        9.1801389901       29.3977537021
  H        -2.6835757225       10.4507832536       26.2725485821
  H        -3.2996774356       10.8953068770       27.7678491049
  C        -4.1580999544        9.1140958953       27.0293951448
  C        -1.6811827148       15.4030740624       31.5189258928
  C        -1.8849350229       13.2222913562       32.6586692645
  H         5.3629028527       12.6764637876       18.9535907539
  H         5.6873782557       14.1617420335       19.7901137754
  C         7.4150131591       12.9796606276       19.3008636969
  H         3.5752033101        6.3013019922       16.1091451876
  C         3.8129565471        7.7325984763       14.7123399173
  H         3.3780589139        8.6249476747       28.4948122420
  H         2.6864754151        8.4188078091       30.1474667255
  C         4.1223282036        9.9885690047       29.9963469291
  H        -4.0605741852        8.5632674674       26.1227532052
  H        -4.3802464409        8.3980288563       27.8680301945
  C        -5.4202157473       10.0090530321       26.8686517927
  N        -1.2640463995       16.3334701752       30.5390062467
  C        -1.9549185733       16.0149456791       32.7667512231
  C        -2.2010756060       13.8703109571       33.8350424466
  H        -1.5368987282       12.2048662867       32.6859481139
  H         7.4398040954       13.0950078676       18.1954146681
  H         7.9491995379       13.7333989841       19.8423047189
  H         7.9209968919       12.0957768591       19.6588806546
  S         4.1812891131        9.3230613351       14.0859446150
  C         3.9623181257        6.6066388168       13.7575117288
  H         4.4691007177       10.7557122938       29.3172649568
  H         3.9108418995       10.3376001950       31.0046063080
  C         5.4023203911        9.1220621799       30.2976141973
  H        -5.1703401249       11.0059390253       26.4758788358
  H        -5.7539851493       10.3030219813       27.8087889661
  C        -6.4775594541        9.4111706499       25.9775723868
  S        -1.4555861011       17.8754417761       31.1525535938
  N        -1.8564690791       17.3975637616       32.7175804127
  C        -2.3165621388       15.3380640894       33.9219528241
  H        -2.3257505817       13.3063422044       34.7867942730
  C         4.4345733843        8.5131376825       12.5654288006
  N         4.3552159225        7.1493558696       12.5856853651
  O         3.7881292131        5.4223222692       14.0295047451
  H         6.2587979962        9.8036044423       30.6386776998
  H         5.7158461848        8.7208382993       29.3703313583
  C         5.2189706201        7.9865189022       31.2925672677
  H        -5.9857805206        8.8236428537       25.2161767435
  H        -7.1247226675        8.7057827089       26.4533420441
  C        -7.3321453640       10.4959104836       25.3897529203
  C        -2.5663966552       16.1187228247       35.0482559246
  S         4.7551288570        9.4405563952       11.1669922859
  C         4.3529049043        6.2879706855       11.3718998259
  H         6.0835552812        8.0493715985       31.9790691085
  H         4.3557217383        8.1905820418       31.9289392690
  C         5.0749363323        6.6422642096       30.6925816048
  H        -6.7289303159       11.1359177956       24.7606117552
  H        -7.6293760055       11.1101059313       26.1721041718
  C        -8.5941418991        9.9122378263       24.6273257417
  H        -2.1250097200       17.1219515081       35.0119116034
  C        -3.0737764829       15.8791696159       36.3198092752
  H         4.9972524736        6.7470736626       10.5568158208
  H         4.8244357764        5.3327189337       11.5887760299
  C         2.8878568402        6.0935303991       10.8912958392
  H         4.6349218512        6.7076375988       29.7052263128
  H         4.3698860277        6.0222713141       31.2804567085
  C         6.5332689819        6.1184121717       30.4856934734
  H        -8.8718172000       10.5910614253       23.8798953997
  H        -8.4051626391        8.9848976386       24.2086724741
  C        -9.7606406613        9.7193864763       25.5372653746
  S        -3.6651430259       14.4357734680       36.9285914755
  C        -3.1150636617       16.9799921696       37.2430735299
  H         2.2572210186        6.3458902717       11.6814177697
  H         2.6517676359        6.7132762664       10.0309073735
  H         2.6357918821        5.0633369945       10.7273557077
  H         7.1028451041        6.8375851120       30.0038642320
  H         6.5698110025        5.2016648749       29.8397905601
  H         6.8382311753        5.8391765596       31.5473861360
  H       -10.1034893462       10.6485741609       26.0352137309
  H        -9.6516583236        8.9904119428       26.3469485009
  H       -10.6804845415        9.4171343900       25.0137887298
  C        -3.7685566698       15.2615454621       38.4768933430
  N        -3.6300456497       16.5818770231       38.3984598621
  O        -2.7234591911       18.1605938565       37.0661751362
  S        -4.2667592135       14.5769418235       40.0718418221
  C        -3.6245730302       17.5862077278       39.5083884639
  H        -3.7995015058       18.5808331020       39.1462437897
  H        -4.3404513288       17.4545423687       40.2845906506
  C        -2.1779226164       17.5782843656       40.0420063978
  H        -1.8639028543       16.5889102848       40.3224645449
  H        -1.4816765849       18.1192838230       39.3525783490
  H        -2.1256987196       18.1884390613       40.9488137268
