352
i=
  H         4.7565855828        1.7171009916       12.7910636084
  C         4.2054651978        2.6424942017       13.0761482516
  H         5.0875141711        3.1849682979       13.4457384306
  C         3.5941785048        3.0568157000       11.7016536345
  C         3.1598060499        2.4076089412       14.1612691481
  C         4.5245779415        2.9836460055       10.5043551761
  H         3.2761819887        4.1073524872       11.7626624397
  H         2.7097281879        2.5218197870       11.3457412841
  H         2.6487423080        1.4737168529       13.8909640319
  H         2.4721622807        3.2008021826       14.2883209449
  H         3.5948271002        2.2397868978       15.0936037588
  C         5.0198902597        1.6392311097       10.0885204232
  H         4.1488307855        3.5007913036        9.5885842093
  H         5.4611583805        3.4936536007       10.7717823277
  C         5.6633981944        1.5880045783        8.6974872515
  H         4.1886773569        0.9658669354       10.1042045602
  H         5.6384792123        1.2858900859       10.9311771511
  C         6.9025803432        2.5301058153        8.5261122459
  H         4.9140998658        2.0203859218        8.0442369011
  H         5.9974941773        0.5827528160        8.3900539196
  C         8.2155911421        1.8154858968        8.7855345226
  H         6.8792457263        3.0047811985        7.5807715753
  H         6.8039804831        3.4969229752        9.1556016180
  C         9.4687145325        2.8180388850        9.0446278452
  H         8.3856362826        0.9519213571        8.1321624764
  H         8.1071014220        1.4028910317        9.6881374018
  C         9.0417825535        4.1270621944        9.7730099785
  C         9.7513131972        3.5909995506        7.7769636082
  C        10.7120869362        2.2194904099        9.7254172585
  C         9.3375961345        5.2144282625        8.9764517024
  C         8.5244772350        4.3804453227       11.0756210220
  C         9.7890478607        4.9443882575        7.7340775445
  C        10.1099752688        3.0196482145        6.5767974630
  H        10.4709744362        1.6541065498       10.5752259073
  H        11.1100103018        1.4098664219        9.0688393334
  C        11.8564267345        3.2370689264       10.1953407736
  S         8.7892826537        6.6116028139        9.7965535649
  C         8.2300426508        5.7479307666       11.1455357108
  H         8.3503057106        3.5580739326       11.8088477837
  C        10.1983812963        5.6711095884        6.6300361443
  H        10.0739757931        1.9860276273        6.5917480643
  C        10.4885806105        3.7303694208        5.4684030386
  H        11.4820918772        4.1395665300       10.5797095862
  H        12.3355023380        3.5354617762        9.2009065662
  C        12.8737819735        2.6379543273       11.1878096915
  C         7.6829311606        6.4923002552       12.3162944697
  C        10.5928005294        5.0870008841        5.4275465236
  H        10.2153343202        6.7645584115        6.6905969898
  C        10.8476015636        3.2627296237        4.2128539800
  H        13.7143757088        3.3237234788       11.1523831050
  H        13.1959890369        1.6157507053       10.8929093797
  C        12.2169202994        2.8119569705       12.5716901971
  C         7.7979502128        7.8802417146       12.7249033441
  C         7.1283285032        5.6301008200       13.3143423463
  C        11.0203836533        5.7825625896        4.0957985345
  C        11.0607291260        4.3762817910        3.3761478525
  S        10.9660803590        1.7545898711        3.3844619493
  H        11.8077746385        3.8034121586       12.7204930322
  H        11.3484400983        2.1555510912       12.6757832661
  C        13.0967787406        2.3420783614       13.7185969113
  N         8.2422415383        8.8783525314       11.9387284358
  C         7.4078988025        8.2898918865       14.0038563358
  C         6.7931781347        6.0331809468       14.6462225642
  H         7.0076154171        4.5685145678       13.1423123906
  C        12.3359611709        6.5049657817        4.3872001867
  C         9.9865572301        6.6868089070        3.3675703877
  C        11.4429987388        3.9500246284        2.0496172989
  C        11.3527892439        2.5801392599        1.9494658268
  H        14.0208831418        2.8964076568       13.6266575188
  H        13.3158848774        1.2437611391       13.7822748406
  C        12.4910292413        2.6506598440       15.0608248198
  S         8.0200800073       10.3030127387       12.6670205517
  N         7.4432439555        9.7112400152       14.0911947513
  C         6.9170692810        7.4864967062       15.0281007133
  H         6.3330219371        5.2936873845       15.3765533439
  H        12.0092876844        7.3870035856        4.9360739171
  H        12.6087147600        6.7986376733        3.3848716576
  C        13.5056980541        5.7646836652        5.0893813898
  H         9.7331321038        7.5017961418        3.9002161821
  H        10.4395890367        7.0132355998        2.3238089038
  C         8.6427157371        6.0284625035        3.1194311269
  H        11.6674766798        4.5313284065        1.2428587832
  C        11.5926501249        1.7497903805        0.7266096137
  H        12.3819078282        3.7127710863       15.0143114290
  H        11.4948904994        2.1539487626       15.3051061617
  C        13.5808935979        2.3650558729       16.1207033301
  C         6.7350359171        8.1059142226       16.3310160497
  H        13.3614829701        5.6713477117        6.1718392718
  H        13.5024244229        4.7362308664        4.7281814415
  C        14.8709633256        6.4195547387        4.8335713468
  H         8.0948950581        5.9625087721        3.9964325948
  H         8.7482223990        5.0598297595        2.6138557558
  C         7.7610622005        7.0153238267        2.1988725095
  C        11.6910716274        0.3972946141        0.5508234809
  C        11.6836414448        2.5588731576       -0.5012465752
  H        14.6194755705        2.6620680100       15.8444715309
  H        13.6406855231        1.3071753596       16.3501518763
  C        13.3315063236        2.8541121421       17.5104630202
  H         6.7526651173        9.1359207707       16.3125544313
  C         6.4181049445        7.6341844972       17.5772762026
  H        15.0513534069        7.4657536831        5.2227440981
  H        15.1489215537        6.4327159506        3.6994951404
  C        15.9499922520        5.5574545179        5.4849397323
  H         7.5696188492        7.9331254733        2.7231888176
  H         8.3065340494        7.3451486303        1.3272422289
  C         6.4811627087        6.2318903163        1.7027823809
  N        11.4628027028       -0.5638531061        1.5798216426
  C        11.8127946911       -0.1889568885       -0.6875432660
  C        11.9540670817        2.0033775393       -1.7535607420
  H        11.6206259570        3.6094532471       -0.4867850514
  H        12.2308611722        2.8331869093       17.7220456964
  H        13.6126763273        3.8380785927       17.7008186473
  H        13.7447366577        2.3172361680       18.2211180684
  S         6.0750207225        6.0022255397       17.9410175324
  C         6.2970843142        8.6054618056       18.6730148326
  H        15.6493205002        4.5220846988        5.3189866428
  H        16.9036965844        5.7744143547        4.9344440764
  C        16.2739168137        5.8840434954        6.9643327354
  H         6.0087317468        5.7309406494        2.5366642010
  H         6.8845716918        5.3522804794        1.1455105170
  C         5.3858085606        7.0096231336        1.0045354208
  S        11.4220024999       -1.9998851704        0.9005011041
  N        11.7862178611       -1.5608518226       -0.5632876154
  C        12.1051181055        0.5586052407       -1.8308024724
  H        12.0389695759        2.6092319448       -2.5997502108
  C         5.7974443924        6.6025966227       19.5519262591
  N         5.8711949739        7.9667183090       19.7380566920
  O         6.3520922346        9.8772770990       18.6056157600
  H        16.2032122911        6.9487592338        7.1580255802
  H        15.3830967395        5.4290270243        7.5535642166
  C        17.5659719713        5.4054373766        7.4539385005
  H         5.8324912387        7.4694823865        0.0781397316
  H         4.7576314498        6.3311545093        0.4765892438
  C         4.6116564673        8.0135488837        1.8972937679
  C        12.5330555656       -0.2437373606       -2.8797330151
  S         5.5860481755        5.6335695694       21.0048270143
  C         5.8191728360        8.7350643356       21.0447671436
  H        17.4757540857        5.1937003539        8.4785349712
  H        17.5884206880        4.4961069023        6.9072960160
  C        18.8011400277        6.2292692564        7.0059170560
  H         5.0851207330        8.4533844649        2.7442686736
  H         3.8443006398        7.4756019998        2.3486843735
  C         3.9554706967        9.2392858400        1.0809607551
  H        11.9374474515       -1.0629652439       -3.0200861444
  C        13.0698416306        0.1381129542       -4.0373109128
  H         5.0433726482        8.3174612309       21.6712496798
  H         5.4299553021        9.7382962577       21.0269490619
  C         7.2191576997        8.7585360808       21.6943343561
  H        19.5744141701        6.3748446283        7.7724925853
  H        18.5265644781        7.2109095577        6.6257017902
  C        19.4410945100        5.6383180156        5.7276657372
  H         3.6284796002        8.8271403279        0.1220333225
  H         3.0950518944        9.6126878791        1.6230124542
  C         4.9062117105       10.3505198585        0.8502383795
  S        13.6760281479        1.6700264259       -4.4589608366
  C        13.1957810745       -0.8644316231       -5.1292700740
  H         7.1653610990        9.5799106323       22.4937232483
  H         7.9165687473        8.9082643828       20.9041845563
  H         7.5149517868        7.8053122918       22.1404186959
  H        19.4726538639        6.4725936542        5.1084395518
  H        20.4706443809        5.3258486446        5.7609236650
  H        18.9636176905        4.9000928470        5.1766518970
  H         5.4311601074       10.7911131448        1.6751318212
  H         5.6991825944       10.3108569729        0.0611306124
  H         4.3056007836       11.1559170293        0.5698895399
  C        14.0079305946        1.0400969526       -6.0464572641
  N        13.7379931367       -0.2774695305       -6.2095041046
  O        12.9526524656       -2.0593957509       -4.9036175308
  S        14.6639321776        1.8613303079       -7.4496772322
  C        13.9745380703       -1.0795499931       -7.3939842617
  H        14.1374432777       -2.1211922666       -7.2343436438
  H        14.9366770913       -0.7328538516       -7.7791624447
  C        13.0030714924       -0.7549546095       -8.4547340478
  H        12.0379806686       -0.3327350778       -8.1139565299
  H        12.6283411489       -1.5602830587       -9.0803220434
  H        13.3241220248        0.0197925869       -9.1158142217
  H        -3.1225317680       15.6615254731       15.8065152988
  C        -3.0634237466       14.6725431183       16.2001559704
  H        -3.9837344074       14.3526808743       16.5700444343
  C        -1.9205191321       14.4125987652       17.1978681070
  C        -2.9587557664       13.7606138623       14.9197899862
  C        -2.4613365414       14.0985661063       18.6187717958
  H        -1.3574911376       13.5809718354       16.7980854632
  H        -1.2413589097       15.3550196297       17.0769156796
  H        -3.5219558787       14.2472800243       14.1529263993
  H        -1.9599486120       13.8294123465       14.4126643424
  H        -3.2880226210       12.7159066882       14.9598907590
  C        -1.4837338195       14.0310580447       19.8087219302
  H        -3.0141666580       13.1625068645       18.5280931420
  H        -3.3959388730       14.7617311987       18.8761418707
  C        -2.1645106570       13.8544196062       21.1807046198
  H        -0.7432456643       13.2895191416       19.5894749805
  H        -0.9399560625       15.0119686181       19.8671226486
  C        -1.2941925401       13.1876209433       22.2643932818
  H        -3.0846353146       13.2928543824       21.0844974382
  H        -2.4342626274       14.7627455651       21.5632207330
  C        -0.1021168538       14.0821686550       22.7279592029
  H        -1.9581992006       13.1485010464       23.1077793480
  H        -1.0474240962       12.1691328016       22.0538491868
  C         0.9829834661       13.1629509124       23.3872181439
  H         0.4562305291       14.6286642873       21.9162229896
  H        -0.3051550189       14.9395092030       23.3755671018
  C         1.2675491604       11.8023745451       22.6861966110
  C         0.6308205842       12.5079084251       24.6463274070
  C         2.2422556797       14.0525288295       23.5307481205
  C         1.1767074067       10.7099655983       23.5625170516
  C         1.7556630283       11.3240467926       21.4591567361
  C         0.6623559431       11.1552881994       24.7728539477
  C         0.2085380534       13.1640084309       25.7957692928
  H         2.3998604394       14.4267843819       22.5227627062
  H         2.0967822873       14.8437836778       24.2219224129
  C         3.5100661546       13.2979136361       24.0804115912
  S         1.6120412360        9.1680656191       22.9186120586
  C         1.9339412678        9.9627461293       21.4679264393
  H         1.9313411823       12.0807600951       20.6870930820
  C         0.2374129557       10.4905285657       25.8756345307
  H         0.0691929595       14.2445288120       25.8662293931
  C        -0.0953757899       12.5186630547       26.9635326277
  H         3.6336788316       12.3617566797       23.6061305604
  H         3.3354927214       13.2215529130       25.1622101666
  C         4.8705145573       13.9573362950       23.9286782483
  C         2.4328127905        9.2345235118       20.2564938815
  C        -0.1891096374       11.1890165459       27.0870512012
  H         0.2986476865        9.3526079019       25.9458884854
  C        -0.4647609310       13.0296327586       28.2309574881
  H         5.5507781486       13.3265098882       24.5837863738
  H         4.7899391510       14.9161619435       24.3712857888
  C         5.3899627719       14.2583409518       22.5480644482
  C         2.2784887682        7.8933093225       19.8710934410
  C         2.8767418957       10.1433918419       19.1837625700
  C        -0.6169139049       10.5855543631       28.4082092971
  C        -0.7514098978       11.9467256522       29.0862796251
  S        -0.8469847786       14.5460389832       28.8141799374
  H         6.4574593933       14.6730092878       22.5715545974
  H         4.7564586666       14.9392005990       22.1284617962
  C         5.3982022764       12.9222414215       21.6796903571
  N         1.7716889130        6.9308487986       20.7736126357
  C         2.5481383511        7.3441550470       18.6701987281
  C         3.1339386254        9.6700683810       17.8664709585
  H         3.0788966018       11.1405508635       19.4277984534
  C         0.4073608204        9.6828370419       29.0589931832
  C        -1.9557431832        9.8363959064       28.0729643287
  C        -1.1456104826       12.4492661827       30.3462265294
  C        -1.2534378022       13.8272324610       30.3580453930
  H         6.0640154331       12.1388860472       22.1369082910
  H         4.5161288168       12.3074060593       21.7315140616
  C         5.8222279752       13.1100255681       20.2254444568
  S         1.6257637693        5.5494367659       19.9548194166
  N         2.3248652038        5.9611706089       18.5839947454
  C         3.0018710147        8.2147154874       17.5676312239
  H         3.3612194319       10.3919461091       17.0710283861
  H         0.7514193084        9.0321511916       28.2668375318
  H        -0.0877847585        9.0189999176       29.7769454375
  C         1.5851896525       10.4397898602       29.5880671628
  H        -1.6112973419        9.0496455059       27.4374728848
  H        -2.3015594428        9.3130295676       28.9591397095
  C        -3.1173206033       10.6445451697       27.5566976107
  H        -1.4808317444       11.8234085819       31.1016077179
  C        -1.4844182217       14.6571180754       31.6043376519
  H         5.6677189795       14.2450493152       19.9479406061
  H         5.1586839435       12.5149262597       19.5766137812
  C         7.2834840707       12.7974489718       19.8302392261
  C         3.3475540115        7.6014858773       16.3099227238
  H         1.7797715277       11.2402527023       28.9343935205
  H         1.4527945039       10.8388050354       30.5731828518
  C         2.8155334552        9.5984151042       29.7415582619
  H        -2.8264333562       11.4903802842       26.9802723068
  H        -3.6076015425       11.0891197299       28.4749397216
  C        -4.2014481971        9.6898841538       26.9873427120
  C        -1.5977283417       16.0045355964       31.7386460063
  C        -1.7631651693       13.9652012100       32.8564806946
  H         8.0998962042       13.4788249909       20.2855367094
  H         7.5430238603       11.7379960384       20.0788947300
  C         7.4093766636       13.0458264989       18.2557467133
  H         3.0173861199        6.6778746632       16.2858658808
  C         3.6605608478        8.0084877290       15.0515496636
  H         3.2539408547        9.3382258514       28.8332172527
  H         2.5015582494        8.6818110960       30.2948872128
  C         3.8297456014       10.2903756949       30.6322919386
  H        -3.9483290903        9.3734140018       25.9870098356
  H        -4.2799725406        8.6950734073       27.5077697587
  C        -5.4670394539       10.5513882358       26.7437683921
  N        -1.2672068732       16.8641424212       30.7600791712
  C        -1.9135585222       16.6627902857       32.9283898860
  C        -2.0963231212       14.5189698046       34.1001386891
  H        -1.7893526621       12.8358942958       32.8532556371
  H         6.5341813443       12.6442946150       17.8223341644
  H         7.4666567558       14.0568995342       17.8722601013
  H         8.2325727729       12.5033693241       17.7350273242
  S         3.8477347777        9.6838293484       14.5565751414
  C         3.7458246647        7.0769265017       13.9232416739
  H         3.5975366446       11.3260548621       30.3830815002
  H         3.4975090723        9.9887038611       31.6325442161
  C         5.2632572531        9.7801366216       30.3357254808
  H        -5.3038857733       11.4200213408       26.1232706614
  H        -5.7292599911       10.9947331659       27.6928181371
  C        -6.5384037426        9.7225146262       26.1601538352
  S        -1.5087613587       18.3747142849       31.3402757780
  N        -1.8256279854       18.0359103572       32.8699427287
  C        -2.2090519298       15.9953196853       34.1375564931
  H        -2.2188893206       13.8288097418       34.9595315135
  C         4.1368635062        9.1165059335       12.9637275359
  N         4.1614288907        7.7423524639       12.8601653111
  O         3.7844108758        5.8416240817       14.0697344563
  H         5.9481199007       10.3083367395       30.9397216018
  H         5.6644998808       10.2193021334       29.5038885128
  C         5.5735307835        8.3365190008       30.5941353692
  H        -6.2024721689        8.9863346633       25.4923667033
  H        -7.1786688775        9.3135168789       26.9319725383
  C        -7.3229219530       10.5214314373       25.1093106506
  C        -2.6259376644       16.7592327657       35.2892696597
  S         4.6946003008       10.0651621641       11.5848442069
  C         4.2913289503        7.1354971689       11.5491054367
  H         5.9185943423        8.2296330166       31.6255422986
  H         4.6453971717        7.7527836289       30.5412916798
  C         6.5935170423        7.7263416291       29.5558424329
  H        -6.7303100972       10.4319226565       24.2198800158
  H        -7.4955116407       11.5571566238       25.3959383416
  C        -8.5346725761        9.8660901049       24.6362107123
  H        -2.4605312781       17.8321535835       35.3713626842
  C        -3.1246100567       16.3410500274       36.5226021278
  H         4.9730880289        7.5771329037       10.8386952629
  H         4.5598809661        6.0654026253       11.6433596042
  C         2.8872156720        7.2283339934       10.9098414498
  H         7.6221349060        8.2029890591       29.5350238528
  H         6.0486195970        7.6225443451       28.5922260236
  C         6.7583717799        6.3675917765       30.1778223165
  H        -8.9746337843       10.4733590242       23.8000391062
  H        -8.3808483340        8.9181145271       24.2434008017
  C        -9.5864026136       10.0062367563       25.8030639530
  S        -3.6512022254       14.7801792782       37.0056130582
  C        -3.3045087722       17.3266588287       37.5335029078
  H         2.1350512316        6.9950904125       11.7114927778
  H         2.7220262101        8.1995665005       10.4653849233
  H         2.6900404446        6.5051786974       10.0804924713
  H         7.2092004137        5.5745525324       29.5985381574
  H         5.7628080386        5.9791170159       30.4969612542
  H         7.2573044725        6.4114397070       31.1114725858
  H       -10.0076007845        9.1113731271       26.0727624067
  H       -10.4379132879       10.7124508206       25.7658110814
  H        -9.1386164732       10.5401346012       26.6016067117
  C        -3.9151747983       15.4903431189       38.5936488731
  N        -3.7418385912       16.8567714508       38.6870151490
  O        -3.0814352858       18.5171726959       37.3963599590
  S        -4.7900344426       14.5335675662       39.8115542257
  C        -3.8016137704       17.5861579095       39.8729581419
  H        -4.2745518629       18.5533792870       39.6841067317
  H        -4.6070166399       17.1555056482       40.5018069363
  C        -2.4920661907       17.7468268587       40.5839622285
  H        -2.5972911327       18.3443968213       41.4391311580
  H        -2.0739366187       16.7743714611       40.8933577431
  H        -1.7297294446       18.3933926550       40.1041128379
