352
i=
  H         2.4562002779        2.0446129622       12.7569826868
  C         3.4726802210        2.3261594484       12.5619886003
  H         4.1021755830        1.4083425678       12.3838778647
  C         3.2421804651        3.2887911160       11.4748018588
  C         3.8276645941        3.1284468485       13.8333316192
  C         4.3973326490        3.3478166231       10.5420443956
  H         3.0411676255        4.2533491164       11.7357902322
  H         2.3796013834        2.8696763569       10.9471893445
  H         3.9162507821        2.5036195530       14.7408896892
  H         3.0773316192        3.8982933451       14.0298655957
  H         4.7893905879        3.6862845040       13.6529326158
  C         4.5905481909        2.1037400173        9.5697167589
  H         4.3462008110        4.3035102424        9.9873613656
  H         5.3044703641        3.3189523053       11.1145141221
  C         5.2733070773        2.3932953449        8.2363178859
  H         3.6148805929        1.6686517898        9.3630811774
  H         5.0287381974        1.2799786891       10.0780665832
  C         6.6911103451        3.0658150642        8.3190046723
  H         4.6327594081        2.9653081726        7.5821623831
  H         5.4622536847        1.4313536352        7.7658966973
  C         7.8996955606        2.3607947796        8.9973983535
  H         6.9495703734        3.2495714290        7.2425967788
  H         6.4848762116        4.0734688160        8.8095358280
  C         9.2080894626        3.2185958837        9.1768273547
  H         8.1237775619        1.4380060506        8.4576617617
  H         7.5824522008        1.8679391152        9.9763425767
  C         8.8909129501        4.5986587342        9.7444036878
  C         9.6525153961        3.8823547460        7.8492871819
  C        10.3281515973        2.4195043280        9.8040035020
  C         9.1359566763        5.6900562996        8.9287377544
  C         8.3691275364        4.9734037465       10.9824444007
  C         9.5863741933        5.2469228457        7.7364262311
  C        10.0462531530        3.1691835228        6.7050654407
  H        10.0020361035        1.9766887635       10.7489249900
  H        10.5530280180        1.5527752406        9.1894057399
  C        11.6158837934        3.2181795712       10.0366610202
  S         8.6982119084        7.1421682181        9.7146021229
  C         8.3118798120        6.3275071853       11.1610416455
  H         8.1801212791        4.2023644144       11.6951455921
  C         9.9135098761        5.8075037240        6.5444206125
  H        10.0618612306        2.0806361185        6.7667518456
  C        10.4298508330        3.7819900795        5.5200525261
  H        11.4270845501        4.1867075772       10.5881043843
  H        11.9334133131        3.5914179003        9.0686547801
  C        12.6469418429        2.4492945131       10.8694801526
  C         7.8617727864        6.9904117194       12.4281324208
  C        10.4531479713        5.1572896272        5.4035544641
  H         9.6809506997        6.8816048839        6.4493447645
  C        10.9776832913        3.4233011578        4.3257070287
  H        13.5767808060        2.8242150897       10.4717803644
  H        12.6953525138        1.3407643762       10.8249036900
  C        12.7375498217        3.0268562682       12.3345239456
  C         7.8008849348        8.3628917283       12.6659375582
  C         7.5421219380        6.1359993814       13.5692650625
  C        10.9271089840        5.9146836409        4.2437600267
  C        11.2119369381        4.5611039349        3.5877135897
  S        11.3099846160        1.9292430363        3.4096145321
  H        13.1205232448        4.0456761639       12.3152331026
  H        11.7282463884        3.1557295881       12.8083086795
  C        13.4600664913        2.1410114910       13.2688875993
  N         8.1538865292        9.3337069048       11.7377945474
  C         7.3925000571        8.9067570577       13.8700744586
  C         7.1536054962        6.6155419823       14.7591079365
  H         7.5046799706        5.0741912810       13.4321147409
  C        12.2447593968        6.6505965580        4.4424909160
  C         9.7968013005        6.7605633066        3.6011647351
  C        11.7317686595        4.2174602580        2.3240498364
  C        11.7235314147        2.8846969313        2.0611787280
  H        14.2950975519        2.6701227355       13.6923781646
  H        13.9676348836        1.2896378029       12.7468672750
  C        12.4773802582        1.4278234701       14.1480745710
  S         7.9631594347       10.7578727842       12.4589541509
  N         7.3270346120       10.3067812376       13.8943485753
  C         7.1995098898        8.1106961411       15.0088859604
  H         6.8758378192        5.9363869487       15.5215108126
  H        12.0293074677        7.3729965560        5.2188036309
  H        12.5926412994        7.1029788930        3.5756773650
  C        13.4228132816        5.7333251845        4.9865485066
  H         9.3424584249        7.3291167124        4.4258557555
  H        10.2009226278        7.3998517415        2.8173484424
  C         8.6229035513        5.9039273395        3.1055292380
  H        12.0185185823        5.0068411295        1.6617399572
  C        11.9501942280        2.1502531882        0.7041796799
  H        11.5093099672        1.1757878972       13.6028337145
  H        13.0053506679        0.4830537772       14.4002698599
  C        12.0484560258        2.1609482712       15.4256687033
  C         6.9208960382        8.8473825347       16.2022999816
  H        13.0216825991        5.3848239732        5.9485894573
  H        13.5885396881        4.8718629801        4.4062745604
  C        14.7386670705        6.5146053984        5.2086017966
  H         8.1714950675        5.3274172778        3.9268895445
  H         8.9715913565        5.1717292771        2.4028002674
  C         7.5303108586        6.7364337419        2.3699072781
  C        12.1553023891        0.7653320604        0.5040864317
  C        12.2906733630        3.0494459782       -0.4763548519
  H        11.0215606589        1.8287333324       15.5628613249
  H        12.0397113221        3.2257097205       15.1757689883
  C        12.9121089857        1.7824608399       16.6861686521
  H         6.9742830757        9.9272256411       16.2139195796
  C         6.5694331481        8.3956388199       17.4655952871
  H        14.6121238887        7.3554715577        5.8002215592
  H        15.1100602966        6.8572191194        4.1941632611
  C        15.7582119904        5.6156711880        5.8446439103
  H         7.2819827840        7.6254581556        2.9359862143
  H         7.8289227269        7.0711033979        1.3168298945
  C         6.1694319825        6.0039226449        2.2536728173
  N        12.0227633545       -0.1969151062        1.5528183254
  C        12.5407549090        0.2626123719       -0.6884685597
  C        12.6336433587        2.4828758281       -1.6861436545
  H        12.3893422530        4.0798696837       -0.3069325554
  H        13.8766850849        1.9679750138       16.3699852855
  H        12.7698182884        0.7084371526       17.0417806999
  H        12.7123804807        2.4756101197       17.5995761782
  S         6.2866577250        6.7747011038       17.9850612917
  C         6.5835470734        9.3765032588       18.5026954874
  H        15.2767379626        5.3166056931        6.8176201516
  H        15.8729044358        4.6735013349        5.2962729714
  C        17.0332403971        6.3484759546        6.1424394463
  H         5.8634805383        5.6304370902        3.2187615003
  H         6.1848670413        5.0766469407        1.6780458419
  C         5.0725988953        6.9229723623        1.6266840679
  S        12.2848333948       -1.6692829256        0.8919796277
  N        12.6766509906       -1.1817942385       -0.5844136682
  C        12.7696394584        0.9848125539       -1.8406978065
  H        12.8397370522        3.1016009559       -2.5298279175
  C         6.0474510236        7.4658085723       19.5695639571
  N         6.2694162691        8.7545070787       19.6672575428
  O         6.8124560263       10.5711248848       18.3478025262
  H        17.6532041803        6.4447267495        5.2650124763
  H        16.8919634733        7.2765384048        6.6470568703
  C        17.8367447321        5.5818232095        7.2443219432
  H         5.5312422806        7.3132619249        0.7239734910
  H         4.2923825268        6.2866977008        1.1836788516
  C         4.4984604441        8.1133038157        2.3868493685
  C        13.1525640199        0.2704179704       -3.0307846215
  S         5.5514672507        6.4795813571       20.9961582864
  C         6.4047870942        9.4102478631       20.9517185935
  H        17.1543869768        5.4291940793        8.1180454748
  H        18.0686228342        4.5363211150        6.8786094429
  C        19.2422488765        6.1445901148        7.6343199892
  H         5.2998034238        8.5419853649        2.9409978393
  H         3.8602640095        7.7831737850        3.1977456076
  C         3.8266429561        9.1332027738        1.4986505797
  H        12.9135354954       -0.7636150967       -2.9318505049
  C        13.6522011464        0.6889327706       -4.2538837842
  H         5.7062857942        9.0527822570       21.7429611187
  H         6.0142227648       10.3348161264       20.7018417835
  C         7.8462068695        9.4369069002       21.4762354492
  H        19.6664888411        5.3852509881        8.2697603839
  H        19.0152523776        6.9444794923        8.2351042349
  C        20.2689982602        6.4601737640        6.5273400888
  H         3.4962176464        8.7045836745        0.5486999163
  H         2.9204143031        9.5679284946        1.8300363893
  C         4.7878118335       10.2545512292        1.1850314009
  S        14.2506479196        2.2575662945       -4.6615805126
  C        13.6824387290       -0.3602795615       -5.3552587142
  H         8.3245401834        8.4591038533       21.5275070012
  H         7.8740631585        9.8256799891       22.4993818124
  H         8.5295239601       10.1086702909       20.8706158116
  H        20.8227334787        5.5791378694        6.1459483637
  H        19.8376143124        7.1090322319        5.7684221232
  H        21.1310037032        6.9694056854        6.9687397413
  H         4.9778683252       10.8095941145        2.0955999223
  H         5.7142051378        9.7216030169        0.8772929912
  H         4.4050437677       10.8524146466        0.3657602321
  C        14.5363287143        1.5261401161       -6.2709996817
  N        14.2831373430        0.2262735085       -6.3950520621
  O        13.2483614930       -1.5168586215       -5.2492012804
  S        15.2505547514        2.3460722255       -7.6606150898
  C        14.4594097727       -0.5478224529       -7.5853162202
  H        14.5150401955       -1.6639073820       -7.4889608823
  H        15.4641799398       -0.3901981777       -7.9299426453
  C        13.2696546378       -0.1793842658       -8.5455202472
  H        13.4404248538        0.4248355660       -9.3592713515
  H        12.5189805824        0.3945012537       -7.8830656303
  H        12.7921144845       -0.9938662156       -8.9478075145
  H        -2.7142311998       15.5722859443       15.7379242806
  C        -3.0206617244       14.8823446102       16.4793901686
  H        -4.0148489104       15.2260087131       16.8696029647
  C        -2.0182764122       14.7061526728       17.6746740175
  C        -3.2587189797       13.4703658287       15.8671066530
  C        -2.5316830178       13.9196796863       18.8189546672
  H        -1.1105164011       14.3382602065       17.3311804233
  H        -1.9355347032       15.7526238846       17.9622278985
  H        -2.3346179946       12.8688789465       15.9384564692
  H        -4.1432299858       12.9704779985       16.3228979089
  H        -3.4387292322       13.5240382273       14.7363650217
  C        -1.4747285952       13.6690121360       19.8890012667
  H        -2.8428791657       12.9463965478       18.3944844340
  H        -3.4321449752       14.3763979490       19.2977810599
  C        -2.0146451836       13.8425289331       21.2581824369
  H        -1.1198106091       12.7330698824       19.6225663579
  H        -0.6889052296       14.3964455754       19.6828789820
  C        -1.1464128110       13.1297581374       22.2580691611
  H        -3.0239261486       13.4909679640       21.3861706972
  H        -2.1762312441       14.8802970351       21.4870704784
  C         0.1204084217       14.0103121069       22.4737263940
  H        -1.7194535178       12.9917323997       23.2247931228
  H        -1.0464174771       12.1199531728       21.9499766558
  C         1.3123176268       13.3136685652       23.2262002913
  H         0.5489760115       14.4330350497       21.6032511137
  H        -0.2696199004       14.9063698460       23.0293259236
  C         1.6272703149       11.9571819498       22.5163154046
  C         0.7616007673       12.5657981597       24.4872125318
  C         2.5072936997       14.3953638925       23.5376238304
  C         1.3569409813       10.8396617122       23.3311755118
  C         2.0513143135       11.5559391509       21.2670301994
  C         0.8380849645       11.2231061656       24.5671467952
  C         0.2342126355       13.1023637626       25.6738461795
  H         2.5367032488       15.0427669288       22.7097223231
  H         2.1362328138       14.9062912493       24.3838019658
  C         3.8472428907       13.6623286212       23.7786932137
  S         1.7529921224        9.3426423827       22.4976129465
  C         2.2176474478       10.2230946234       21.1277136343
  H         2.3051040165       12.3038674469       20.5085718420
  C         0.3794186802       10.5323891219       25.6752984659
  H         0.2883966011       14.1789337687       25.6533960806
  C        -0.0622759407       12.4942228541       26.8366670122
  H         3.8994826613       12.9818385599       22.9373195154
  H         3.8134295938       13.0721922889       24.6681508899
  C         5.0628201378       14.6519234915       23.8285017862
  C         2.6080352080        9.5302117792       19.8713220494
  C        -0.0587148045       11.1470369720       26.8514211942
  H         0.3875935530        9.4442687370       25.7191953915
  C        -0.3821113255       12.8005407374       28.0952760180
  H         5.7846280224       14.2317469665       24.5039162832
  H         4.7675023756       15.6590106637       24.2853175172
  C         5.5405182462       14.8673833368       22.3774050331
  C         2.5492017508        8.1333105715       19.5540717081
  C         3.1256504189       10.3883332824       18.7970372276
  C        -0.4602937984       10.3570116192       28.0693741696
  C        -0.5838285198       11.6929710262       28.9088116431
  S        -0.6363134975       14.3251138407       28.8736859559
  H         6.3945037216       15.5590221183       22.3255750568
  H         4.7784449374       15.2634246548       21.7254920142
  C         6.1533804948       13.5686056255       21.7062087714
  N         1.9693094241        7.1749792643       20.4001484193
  C         2.8212173832        7.6596213069       18.2794677323
  C         3.4277971505        9.8771232970       17.4934193791
  H         3.3649756158       11.4061878330       18.9828416939
  C         0.6284545077        9.4945566737       28.6602806152
  C        -1.8046490943        9.6887411906       27.8691440350
  C        -1.0190851986       12.0600342482       30.2186998854
  C        -1.0945200674       13.4474342152       30.3360790191
  H         7.2574746521       13.5759699582       21.7984576883
  H         5.7959775532       12.7147268181       22.1603334320
  C         5.9156587457       13.5143380442       20.1810442601
  S         2.1828133240        5.7377121491       19.5886625738
  N         2.6774530269        6.3024634897       18.0896955105
  C         3.2194055211        8.4378300485       17.2005939589
  H         3.8845366246       10.5317605117       16.8605903214
  H         0.8249614048        8.6635336868       28.0004423248
  H         0.2728390044        9.1052790445       29.6091281404
  C         1.9338912645       10.2180367760       29.1081424829
  H        -1.6499707286        9.1771522575       26.9084006583
  H        -1.9815459380        8.9180313336       28.7564530698
  C        -2.9430584251       10.5734951946       27.5977557664
  H        -1.1787281311       11.2167883975       30.8914265227
  C        -1.3652282505       14.2438446092       31.6480135965
  H         5.2780052248       14.2915432539       19.8098021071
  H         5.3841811352       12.6336509250       19.8823221043
  C         7.2461894862       13.5056034836       19.4422590279
  C         3.4405180607        7.8128706033       15.8977020275
  H         2.3630142745       10.8553278018       28.3012801215
  H         1.7096396085       10.8795052566       29.8813651108
  C         2.9746948519        9.3455199337       29.7287416347
  H        -2.6863391364       11.2327158321       26.7795846659
  H        -3.3472444369       11.0293346694       28.5000324903
  C        -4.0943833784        9.7602551224       27.0758315171
  C        -1.3883172197       15.6599797423       31.7195584932
  C        -1.4622323795       13.4902654050       32.9122569855
  H         7.7814934379       14.3411357118       19.8263116097
  H         7.8698033616       12.6738961375       19.7366166543
  C         7.1618154142       13.7328354245       17.9607987757
  H         3.6235626839        6.7385712593       15.9608119818
  C         3.6644816923        8.2716044182       14.6541442194
  H         3.3333891773        8.5250318820       29.0922731604
  H         2.7246575949        8.9140075919       30.6869081218
  C         4.1900177838       10.1423509405       30.0128516577
  H        -3.7816936311        9.3120228236       26.1503574046
  H        -4.0802009613        8.8301369976       27.6908788777
  C        -5.4920857405       10.3038923953       27.1211499306
  N        -1.2549747564       16.5690432984       30.6407143949
  C        -1.6830740018       16.3171314231       32.9209938030
  C        -1.6658735636       14.1076799864       34.0988724065
  H        -1.3011975961       12.4084228499       32.8392888375
  H         7.5548527417       14.7129397675       17.6335261005
  H         7.9461326272       13.0727940262       17.5683583985
  H         6.1493830532       13.6409287203       17.5538120103
  S         3.7873060282        9.8951643913       14.2069848890
  C         3.8816150688        7.3449180652       13.5216117092
  H         4.1225223906       11.0475540092       29.3862936728
  H         4.0587338948       10.5373480671       31.0197809636
  C         5.5157429330        9.3246784061       29.7531331789
  H        -5.3232894244       11.3914382086       26.9274838916
  H        -5.8632005582       10.2381052448       28.1476373799
  C        -6.4073441308        9.7338619094       26.0839196662
  S        -1.4199486813       18.0770419880       31.1893086596
  N        -1.6654785375       17.7026922577       32.7861835640
  C        -1.9037777592       15.6008103852       34.1203172785
  H        -1.7175970576       13.4903432742       34.9937145251
  C         4.2479822203        9.3539107509       12.5747058802
  N         4.2626106994        7.9852192934       12.4482944453
  O         3.8699737430        6.1497153694       13.7066985248
  H         6.4163062374        9.9245721088       29.6984389759
  H         5.5245582609        8.9077840758       28.7851300770
  C         5.6369689335        8.0933803258       30.7029772285
  H        -5.8478877130        9.4605216873       25.1742079958
  H        -6.9057668597        8.8325984574       26.4595727536
  C        -7.4734003998       10.6977075631       25.5133561126
  C        -2.1724364557       16.3879504895       35.3569314073
  S         4.6740399178       10.2820740228       11.1041684500
  C         4.5575029528        7.2208826059       11.2064924783
  H         6.2689337881        8.3041428575       31.5661565828
  H         4.7013088964        7.7140950143       31.1327722850
  C         6.2859360207        6.8434755938       30.1091988276
  H        -7.0365100343       11.2930105166       24.7209836930
  H        -7.7135947183       11.4514094339       26.2171236143
  C        -8.6343932386        9.9713703432       24.8994229819
  H        -2.0495237329       17.4283659478       35.2748444901
  C        -2.5858166429       15.9894615289       36.6077866271
  H         5.3193363588        7.8286548088       10.7333111598
  H         4.9947248595        6.1851335530       11.3447013729
  C         3.3896353618        7.3196168043       10.2592345012
  H         7.2087398909        7.1623752537       29.6946062467
  H         5.6114836564        6.5259002262       29.3642405992
  C         6.3328455536        5.7034330919       31.0415388425
  H        -8.9594508059       10.6093050501       24.0448423775
  H        -8.2068695762        9.0082021091       24.5665576106
  C        -9.8238947763        9.7937785934       25.8542632805
  S        -2.8437545509       14.3840585745       37.1011435703
  C        -2.9385119849       16.9612578583       37.6527754142
  H         3.8511908062        7.7081827610        9.3724269378
  H         2.8516317954        6.3885054260       10.0508777266
  H         2.6874683211        7.9514706257       10.7673534562
  H         5.3263443930        5.5742939036       31.4426796297
  H         6.9410148675        5.9441687663       31.9424977333
  H         6.6935718274        4.7811823569       30.6366606403
  H        -9.4639698120        9.2785786362       26.7334469188
  H       -10.6564702408        9.2048524698       25.4494237181
  H       -10.2632045548       10.8114081505       26.2304579847
  C        -3.3175272237       14.9889043609       38.6325734956
  N        -3.4064058063       16.3454809683       38.6851566627
  O        -2.9705919136       18.2168674444       37.4909563399
  S        -3.8889906094       14.0568615075       40.0391411545
  C        -3.8616683062       17.0112264003       39.9309623874
  H        -4.1855112675       17.9874571772       39.7294095866
  H        -4.7666890302       16.5518219381       40.2908838435
  C        -2.7908980808       17.1071598343       40.9375760546
  H        -1.7827310315       17.3865544519       40.5251583526
  H        -2.8993239556       17.8886604354       41.6942719035
  H        -2.4708309671       16.1508624473       41.4164447553
