352
i=
  H         2.0240990842        0.9952482120       12.5562357212
  C         2.9207805254        1.5697499508       12.4677648263
  H         3.7367384817        0.8963969487       12.3012227453
  C         2.8799098620        2.5517326955       11.2634171479
  C         3.1842570470        2.3527734911       13.6858244081
  C         4.2894919224        2.7657867472       10.7081230323
  H         2.5290757113        3.5282017121       11.7124781269
  H         2.0787083144        2.1294418151       10.5343027049
  H         2.8835087764        1.6459204788       14.5084208592
  H         2.4661245385        3.1568110555       13.7492999612
  H         4.1953926475        2.7836527625       13.7543520890
  C         4.7575342490        1.4435416275       10.0982333741
  H         4.1452690662        3.5062293017        9.9463365064
  H         4.9863191893        3.1841155403       11.4175951119
  C         5.4090409514        1.6345522823        8.7369907211
  H         3.8516480862        0.7929394595        9.8936126319
  H         5.4300314504        0.9086285813       10.7495563685
  C         6.5968517197        2.6368425874        8.9013227143
  H         4.6340038187        1.9503775641        8.0058690742
  H         5.6860551232        0.6016579882        8.4123718617
  C         7.9035020058        1.8897076010        9.3851825406
  H         6.8754931899        2.9611042312        7.8461554623
  H         6.3941851678        3.5214491331        9.4908173218
  C         9.1355356230        2.8525561335        9.5262985010
  H         8.1187281460        1.1451384229        8.5283247231
  H         7.7468641913        1.4211648001       10.3513581968
  C         8.7338795690        4.2146272794       10.2232001374
  C         9.5204677553        3.5817867961        8.3132272041
  C        10.3389315582        2.1862535369       10.2380127180
  C         9.0178549129        5.3269181235        9.4770806723
  C         8.3229136017        4.6004110218       11.5040242246
  C         9.4797085381        4.9125557906        8.2630249652
  C         9.8413824563        2.9469951240        7.1141552276
  H        10.0061364601        1.5927384841       11.1113210689
  H        10.5577193385        1.2823438641        9.5841971545
  C        11.6206655325        3.0356622289       10.4183319765
  S         8.7243964353        6.8581131277       10.2138933345
  C         8.2694889821        5.9908191055       11.6060551220
  H         8.1225436401        3.9506170512       12.3222582206
  C         9.7962978768        5.5643835162        7.0730863727
  H         9.8341300106        1.8395646758        7.0615337709
  C        10.3232129304        3.5805787683        6.0149485188
  H        11.3885549371        3.8602432916       10.9225701363
  H        11.9029904541        3.3550653489        9.3937680685
  C        12.7402973219        2.2192115521       11.0542473461
  C         7.7901401079        6.7494194888       12.7930050990
  C        10.2565799110        4.9121700533        5.8920315175
  H         9.6312741273        6.6308379476        6.9948337445
  C        10.7562114189        3.1635542291        4.7713110179
  H        13.6531611066        2.8397953720       11.1244786226
  H        13.0040446708        1.3577656908       10.3478373517
  C        12.4559631195        1.7722909403       12.5152269362
  C         7.7351462047        8.1603429362       12.9723209097
  C         7.5659997478        5.9050233761       14.0512049913
  C        10.6879663415        5.6417501513        4.6604362738
  C        10.9873580509        4.2760403784        3.9146587423
  S        11.0510733924        1.6180362371        4.0021838481
  H        11.8160653516        0.9308576664       12.5100332849
  H        13.4605549241        1.4894154393       12.9433791669
  C        11.6657460095        2.7712645796       13.3635158994
  N         8.1213330022        9.1077952470       12.1021671360
  C         7.3268650983        8.7382388813       14.1785838583
  C         7.1170319914        6.4929735809       15.2135170551
  H         7.7836138348        4.8381779521       14.2334791865
  C        12.0041746796        6.4810010219        4.8207735042
  C         9.4943351282        6.3805614529        4.0224293552
  C        11.3340204106        3.8125467908        2.6503176880
  C        11.5130637737        2.4676876862        2.5771954438
  H        10.7686625655        3.0878833656       12.8729748690
  H        12.3649744697        3.6044921140       13.5310892743
  C        11.3651168958        2.1945284602       14.7280379553
  S         7.9267261995       10.6123051752       12.7279577969
  N         7.3399758232       10.1324430383       14.1663015151
  C         7.0060428120        7.9755198939       15.3859332726
  H         6.7691954256        5.8490332617       15.9566883113
  H        11.7084572981        7.3257939052        5.4062392178
  H        12.3407178419        6.8767479800        3.8393588172
  C        13.0784253978        5.6735885100        5.5045294992
  H         9.1468632632        7.1702611928        4.7379876825
  H         9.9444968047        6.8847775038        3.1494941044
  C         8.2094989473        5.7221202261        3.5908854872
  H        11.4723478136        4.5719124414        1.8842925660
  C        11.8929376475        1.7161444948        1.3069352842
  H        10.5172734644        2.8047261005       15.0990222063
  H        10.8858029256        1.2347540261       14.4270719014
  C        12.4253414043        1.8656363198       15.8086040962
  C         6.8833658535        8.5892297740       16.6516994410
  H        12.7729837426        5.4459997491        6.5010406924
  H        13.1551223852        4.6290325191        5.0171321328
  C        14.4745541788        6.2747695698        5.6272863619
  H         7.7032243816        5.1525536826        4.4029778301
  H         8.4899661011        5.0418385310        2.7396655772
  C         7.2919555268        6.7494561841        3.0673378055
  C        11.8632025260        0.3219112825        1.0963566813
  C        12.3333753526        2.5403455781        0.1640927733
  H        13.4057334520        2.0464398028       15.3663518477
  H        12.3358358133        0.7725438505       15.9713839898
  C        12.2800431236        2.4968462969       17.2274227858
  H         6.9355484168        9.6590529698       16.7128357258
  C         6.4597394864        8.1357755759       17.9030740475
  H        14.3583170819        7.0905118805        6.3324450521
  H        14.8200125552        6.6392969451        4.6336562199
  C        15.3992958576        5.2420486691        6.3393947905
  H         6.6736615753        7.1829465331        3.8325720920
  H         7.7625958236        7.5169712271        2.5841373520
  C         6.4241462616        6.1333169185        2.0214882705
  N        11.5124384423       -0.6301777290        2.0776102892
  C        12.1634593562       -0.2607546310       -0.0913347430
  C        12.5173334787        1.8964011959       -1.0968607136
  H        12.1599747346        3.6051548760        0.1446960990
  H        12.5379308133        3.6005397188       17.3055812070
  H        12.9276028106        2.0191747984       17.9461439187
  H        11.2752969925        2.4444895821       17.6241684306
  S         6.2465608358        6.4877461211       18.2644206135
  C         6.2186224558        9.0697560785       18.9798896352
  H        15.4203457843        5.3296731780        7.4124083313
  H        14.9587999013        4.3059832284        6.1425109195
  C        16.7197321989        5.0949652470        5.7172428546
  H         6.4502547605        5.0915417943        2.0128387684
  H         6.6842382704        6.4609072016        1.0308664796
  C         4.9194604822        6.2981068517        2.4160426050
  S        11.7676767255       -2.0623872463        1.4649883949
  N        12.0514953337       -1.6509629494       -0.0721179194
  C        12.3964139919        0.4325295635       -1.2709950153
  H        12.6092591940        2.5903356006       -1.8838701353
  C         5.7755960478        7.0322767298       19.9055466455
  N         5.8293992915        8.3466454835       20.0563187006
  O         6.3102965174       10.3163508335       19.0060838834
  H        16.5993474938        4.4623074114        4.8540538159
  H        17.1225627665        5.9934423415        5.3900429738
  C        17.7863210563        4.5293923345        6.7096239301
  H         4.2807170725        5.7405833816        1.6906409816
  H         4.5749058791        5.9878860165        3.3779869149
  C         4.4854912111        7.7915373174        2.3335273750
  C        12.5977849328       -0.3315423578       -2.4852127144
  S         5.6758362927        6.0007325594       21.3603265087
  C         5.7099566126        9.0565610397       21.3351948852
  H        17.2367670636        3.9246645957        7.4416118580
  H        18.4699968450        3.8300760402        6.2026024421
  C        18.5976831070        5.6043160571        7.3754223415
  H         4.9714223644        8.4314655098        3.1373005313
  H         3.4117963043        7.8590392686        2.6903297047
  C         4.8790617157        8.5115368764        1.0750102844
  H        12.5505080272       -1.3986677478       -2.4467008632
  C        13.0183086835        0.0549532517       -3.7488463608
  H         5.0105840710        8.5998221801       22.0387088004
  H         5.2341621623       10.0646674280       21.1648603159
  C         7.0420683961        9.2254802029       21.9229077263
  H        18.7198779683        5.3273656872        8.3988654898
  H        18.1475049038        6.5560091817        7.2809514699
  C        20.0613324326        5.7041537898        6.8553561194
  H         5.8637060506        8.9716137424        1.2511098215
  H         4.9239001659        7.8144737953        0.2754921033
  C         3.8667023498        9.5609471729        0.6471029053
  S        13.4608950462        1.6883417611       -4.1575857126
  C        13.2874842197       -1.0092735707       -4.7819415017
  H         7.4443490290        8.2533288967       22.2511278425
  H         7.1091139151        9.8621725046       22.7712232937
  H         7.8641570467        9.6777085489       21.2969332866
  H        20.4677316598        6.2516533373        7.6865769636
  H        20.5120228373        4.6941344583        6.7965142767
  H        19.9951852288        6.2577680712        5.9377875168
  H         3.9821359316       10.5145080502        1.2180865914
  H         4.1843985032        9.8244182489       -0.3144526194
  H         2.8118492610        9.2507069635        0.5732166521
  C        13.9680621467        0.9944100659       -5.7085059946
  N        13.8481285546       -0.3835954972       -5.8527525952
  O        13.2047963177       -2.2239686740       -4.6229073105
  S        14.4821600359        1.8354683283       -7.2029585965
  C        14.2772155352       -1.0984467290       -7.0648549997
  H        14.3372302800       -2.1778939015       -6.8763251335
  H        15.1513849181       -0.7662209630       -7.6304248004
  C        13.0838846239       -1.0214291872       -7.9965679712
  H        13.1783370918       -0.3390820891       -8.8603981521
  H        12.1270879293       -0.8899941791       -7.4760141509
  H        12.9784945057       -2.0076842952       -8.4334652689
  H        -3.2638001605       14.2683115762       16.7232991202
  C        -3.2227815183       13.2405880323       16.7974336414
  H        -4.1591574573       12.8819342510       17.3894343986
  C        -1.9561268280       13.0921864497       17.5680858715
  C        -3.1262508022       12.6742747333       15.3988904961
  C        -2.1000870927       13.5684010294       19.1024342007
  H        -1.6909170259       12.0869647918       17.6059524164
  H        -1.0615765488       13.5789847357       17.1191450038
  H        -3.1366508687       13.5914772660       14.7432220905
  H        -2.2949174548       12.0902929478       15.1439029670
  H        -3.9924557354       12.0606858002       15.1950468163
  C        -2.5070443770       12.5042637500       20.1621278324
  H        -2.8148825259       14.3900326194       19.0123961375
  H        -1.1441742312       14.0298242593       19.4278888052
  C        -2.7313186249       13.0601721440       21.5458525839
  H        -3.4597419927       12.1167430343       19.8091314691
  H        -1.6903622774       11.7760214496       20.3157731873
  C        -1.5417982740       12.4734648314       22.4095375538
  H        -3.6885456200       12.6664433907       21.8513783605
  H        -2.7598036938       14.1748856554       21.5271084106
  C        -0.2497699954       13.3600908549       22.3814449803
  H        -1.9428787267       12.5295490133       23.4468409501
  H        -1.4129129061       11.3970453517       22.2900898358
  C         0.8954306280       12.6847501440       23.2236364630
  H         0.0590389404       13.6680646973       21.3915604962
  H        -0.5401309329       14.2756451247       22.9050233298
  C         1.2687206095       11.3474966168       22.6051914138
  C         0.4141916368       12.0688506771       24.5306064397
  C         2.1458907781       13.5634836599       23.4106802654
  C         0.9088533164       10.2705374008       23.4060336166
  C         1.6892146261       10.9534415511       21.3611237955
  C         0.4787747144       10.7441459627       24.6720358845
  C        -0.0201233018       12.7724418711       25.6305089441
  H         2.2573189798       14.1485088719       22.5331452730
  H         1.9267362999       14.3221093399       24.2010779456
  C         3.4433878736       12.8829569815       23.7028500534
  S         1.2308668763        8.7031750531       22.7015364310
  C         1.8231641876        9.5691506750       21.2318376056
  H         1.9712764540       11.8123228101       20.6393077502
  C        -0.0069880724       10.1264339996       25.8171204524
  H        -0.0628609647       13.8648183752       25.5488503256
  C        -0.4699702282       12.1185228861       26.7687658387
  H         3.9087568252       12.5275176556       22.7236075774
  H         3.3284616011       11.9926110026       24.3503784119
  C         4.4398617001       13.8720701980       24.2676701050
  C         2.3567969391        8.9274645248       20.0029050543
  C        -0.4130550114       10.7658704046       26.9360314121
  H         0.0913662863        9.0851193161       25.7696172122
  C        -0.7416235974       12.5680404795       28.0244243477
  H         5.2003248535       13.2376813061       24.7260416488
  H         4.0830042143       14.3868501151       25.1661950532
  C         5.1899802077       14.7445208409       23.2560222116
  C         2.4598053348        7.5429448267       19.6351455701
  C         2.7848981137        9.8413705433       18.9042675386
  C        -0.8791639530       10.1265244909       28.2786507501
  C        -1.0290470139       11.5018355976       28.9099564342
  S        -0.9345586614       14.1163239249       28.7034297434
  H         5.4821851905       15.6770896801       23.8115384239
  H         4.5179347221       15.0889417388       22.5176779057
  C         6.3914271205       14.1894756682       22.5515937116
  N         2.1285260155        6.4761987371       20.5372962864
  C         2.8507210804        7.1023911447       18.3935848011
  C         3.0449276380        9.3432000204       17.6033135637
  H         2.8680174459       10.9443374053       19.0113542101
  C         0.3054601238        9.3724269899       28.9913452433
  C        -2.2367857890        9.3490703920       28.1691516761
  C        -1.2964344732       12.0138056581       30.1727500582
  C        -1.3612007191       13.3673355167       30.2224180149
  H         7.1713508945       14.9110794586       22.7294344482
  H         6.6661899031       13.2112437503       22.9796173159
  C         6.1605933161       14.0657541696       21.0938663142
  S         2.3373074991        5.1350699280       19.6978661141
  N         2.9107870456        5.6780403648       18.3487400791
  C         3.0566559364        7.8903758796       17.3018803393
  H         3.2995127402       10.0742263395       16.8953975361
  H         0.5918376175        8.4807021448       28.3477773379
  H        -0.0486967260        8.9109696752       29.9227559551
  C         1.5503204429       10.1761017010       29.2829229544
  H        -2.1185059264        8.4650701062       27.4954919893
  H        -2.5498736960        8.9060084129       29.1734603716
  C        -3.4799284828       10.0787744137       27.6385680498
  H        -1.6798759361       11.3262685373       30.8873036901
  C        -1.6770240361       14.2223852246       31.4219228364
  H         5.7043975162       15.0226164570       20.8090562645
  H         5.4552036905       13.2786881199       20.9598220444
  C         7.3980216911       13.8002505823       20.3947070183
  C         3.4182307971        7.3062216059       16.0283632361
  H         1.9597464651       10.6554271356       28.3624996271
  H         1.5221558626       11.0424747294       29.9759666348
  C         2.5930048891        9.1722192818       29.7636664565
  H        -3.1664413567       10.4132201852       26.6243225078
  H        -3.6949324434       10.9908712635       28.2147592344
  C        -4.7533242867        9.0984068695       27.5823972750
  C        -1.6016191475       15.6063045072       31.5026659171
  C        -1.9902362134       13.5595282097       32.6892416300
  H         8.1498003974       14.5862883748       20.3175361015
  H         7.9109925750       12.9552600185       20.8230265765
  C         7.0763723390       13.4571785051       18.9500235920
  H         3.1907829049        6.2367453384       15.9983644814
  C         3.7372113046        7.7561885331       14.7754158902
  H         2.7596661062        8.4477250448       28.9463491971
  H         2.1911011746        8.6829022800       30.5917890685
  C         3.9342321331        9.9633802501       30.1267844046
  H        -4.4411370404        8.4498692026       26.7442726645
  H        -4.8334813561        8.4266224916       28.4765028357
  C        -6.1500223600        9.7561467689       27.3957125670
  N        -1.2543870248       16.4424405509       30.4456331482
  C        -1.7933272008       16.3355449882       32.6825083992
  C        -2.2916346906       14.3069153649       33.8915459984
  H        -2.0600317820       12.4667876645       32.7019772007
  H         6.0049632452       13.0816323822       18.7796884159
  H         7.1675906492       14.3226359437       18.2802662368
  H         7.6692971526       12.6278882848       18.5062698595
  S         4.0015805903        9.4096192844       14.4195348219
  C         3.8584702515        6.7227083663       13.7275928171
  H         3.8943918621       10.7644545223       29.3591586710
  H         3.7142847675       10.5001436746       31.0150731548
  C         5.2843438422        9.2290398230       30.1301843913
  H        -6.1872983001       10.5601266026       28.1712035062
  H        -6.9440494159        9.0716376760       27.5958111620
  C        -6.2962622370       10.5131966253       26.0386112582
  S        -1.3371718892       17.9370572029       31.0407888926
  N        -1.5100508423       17.6839470985       32.6111840096
  C        -2.2318009957       15.7507158365       33.9070800201
  H        -2.4997048646       13.7910186440       34.8010608576
  C         4.2645461928        8.6744018127       12.8488098823
  N         4.1718632151        7.3529993639       12.6539482780
  O         3.7391554492        5.5226053490       13.8434302990
  H         6.1213340752        9.8623070896       29.8676860782
  H         5.2287454337        8.4367031875       29.4218973147
  C         5.6117560276        8.6048466163       31.4716236903
  H        -5.7876203218       11.4117115941       26.0021036453
  H        -5.8500473642        9.8473430305       25.2827066677
  C        -7.7834357966       10.7715903820       25.9206270058
  C        -2.4026085559       16.5903175057       35.0513639657
  S         4.7352717846        9.6222661854       11.4142282221
  C         4.3001334326        6.6516959093       11.3597734691
  H         6.6289103504        8.9582352423       31.5820986725
  H         4.9210163427        8.8244370471       32.2923822159
  C         5.7331850669        7.0510698685       31.4484863986
  H        -7.9316689215       11.7086165699       25.3694820656
  H        -8.1687510087       10.8445171722       26.9405453766
  C        -8.5628832776        9.6656697258       25.2973577812
  H        -2.0201363053       17.5663142177       34.9240287536
  C        -2.8121659890       16.3457595416       36.3514624343
  H         5.0089464006        7.2206211893       10.7067428384
  H         4.7412209892        5.7014404464       11.5094143305
  C         2.9786816635        6.4176575576       10.7119771372
  H         4.9970968768        6.6658573672       30.7331519955
  H         5.2511584167        6.7285774108       32.3777938420
  C         7.0331809374        6.2743338794       31.3818635506
  H        -8.7658133509        9.8676838580       24.2296889066
  H        -8.0096736729        8.7180328958       25.3502054199
  C        -9.9223224506        9.4227239821       26.1618006964
  S        -3.3558165476       14.9064450638       37.1329855545
  C        -2.8128730922       17.6195761105       37.2039312769
  H         3.0086029850        5.5964814342        9.9901852158
  H         2.1876502016        6.0933105945       11.3907436858
  H         2.6480762397        7.2835001685       10.1651379631
  H         7.5898863720        6.7775367340       30.6992708768
  H         7.0060263605        5.1780732145       31.1407810696
  H         7.5443600794        6.2898979994       32.3912271933
  H       -10.3386900701       10.3086956880       26.6990046988
  H        -9.7466736469        8.5960629887       26.8768326251
  H       -10.6351726493        9.1029775430       25.4418089678
  C        -3.6534915441       15.9953498158       38.5789062369
  N        -3.4794427432       17.2854429473       38.3208555131
  O        -2.7044377459       18.7505955558       36.7696778247
  S        -4.3641543616       15.4309533257       40.0544780914
  C        -3.6207948891       18.3073500767       39.3176396108
  H        -3.9790228633       19.2392465433       38.8701098787
  H        -4.4526510662       18.0237987378       39.9197269233
  C        -2.3708831528       18.3127253158       40.1754437637
  H        -2.0789363934       19.2966657970       40.5864971916
  H        -2.5481337349       17.5375271007       40.9353379380
  H        -1.5676595937       17.9766843991       39.5596180868
