352
i=
  H         4.2060113839        1.7605898063       12.9836343279
  C         3.5822594129        2.6520707732       12.9826991747
  H         4.2654861503        3.4607420076       12.9229146505
  C         2.5908843547        2.7598724322       11.8100900612
  C         2.9137610385        2.5897215578       14.3631272100
  C         3.4941483632        2.9635140117       10.5307684640
  H         1.8520345016        3.5875757397       12.0311857403
  H         1.9552583189        1.8667722465       11.5907415134
  H         2.2993958576        1.6976263705       14.4941760489
  H         2.1832485471        3.4279091606       14.4465531726
  H         3.5290827076        2.5633033134       15.1839428007
  C         4.2234824961        1.7788093074        9.9727031273
  H         2.9061204690        3.4476809986        9.8490828924
  H         4.2074768099        3.7372028924       10.6518487026
  C         4.9989354544        1.9675857382        8.6368016021
  H         3.5167582355        0.9554315305        9.9873631098
  H         4.8308855029        1.3180645209       10.6951149387
  C         6.3390099612        2.8282217566        8.6449708131
  H         4.2559477583        2.3343472610        7.8321632685
  H         5.2099169268        0.9531794235        8.2014965829
  C         7.6279771519        2.2059998137        9.2378068346
  H         6.5520920023        3.0054278186        7.6006134809
  H         6.1281195488        3.8691255319        8.9068495819
  C         8.8104512014        3.1780509704        9.3797785240
  H         7.9569507831        1.2643037227        8.6994918748
  H         7.3177064624        1.8251544090       10.2155444397
  C         8.4227640615        4.5133174095       10.0326269085
  C         9.2719023423        3.9452442273        8.1143772838
  C        10.0602165590        2.4913416468       10.0276738936
  C         8.7050382598        5.6116490686        9.2225100018
  C         7.7942594636        4.8289251605       11.2582980433
  C         9.2607387488        5.2927817329        7.9935028941
  C         9.8331518941        3.3346674198        6.9638572699
  H         9.7892325077        2.1615307995       10.9856766005
  H        10.3988834091        1.5616737905        9.5444917975
  C        11.2883793608        3.3717946745       10.1657853593
  S         8.4834172269        7.0787558117       10.0847067804
  C         7.7374481093        6.1570623428       11.4022252465
  H         7.6096464594        4.0674970637       11.9492323544
  C         9.6828038294        5.9741136267        6.9099096633
  H         9.6666097174        2.2561812663        6.9797497732
  C        10.2780873455        3.9861526838        5.8363052790
  H        11.0006316146        4.3182271058       10.5555604793
  H        11.8201586620        3.6246827109        9.2500399722
  C        12.2638601092        2.8740072287       11.2057239620
  C         7.3620240615        6.8352363909       12.6986658110
  C        10.0929033308        5.3269883646        5.7242990904
  H         9.5349818752        7.0420942996        6.9956051022
  C        10.6923907478        3.6404043464        4.5552260693
  H        12.9528208383        3.6487806467       11.1858673778
  H        12.7628287207        2.0939717185       10.7897565508
  C        11.6339106444        2.5236355085       12.5750563645
  C         7.4936308037        8.2108480796       13.0354956055
  C         7.0489115616        5.9670565206       13.9060972278
  C        10.4944660735        5.9824900041        4.4718994690
  C        10.7060701875        4.7345260644        3.7051642216
  S        11.0280448301        2.1294035178        3.7849874074
  H        10.7647139740        3.1560691516       12.7625682548
  H        11.2944990969        1.5310462071       12.6167628822
  C        12.6996920216        2.5540944541       13.6596708123
  N         7.7637323401        9.2258048917       12.0506732602
  C         7.0394897130        8.7196528214       14.2474898048
  C         6.7700586851        6.4349529264       15.1565960425
  H         7.0671178323        4.9005801369       13.7982328034
  C        11.7197018605        6.9054145684        4.6482378919
  C         9.2846069044        6.7540562314        3.9070420544
  C        11.0834782834        4.2735009646        2.3873681817
  C        11.2598098806        2.9243956322        2.2815140958
  H        12.7004612764        3.4643430578       14.1684692021
  H        13.6670083772        2.5496118884       13.1117832039
  C        12.6912760642        1.3535059747       14.5887480240
  S         7.7292019139       10.6832987761       12.8574425097
  N         7.0953071713       10.1356114764       14.2805724704
  C         6.6976917726        7.9115158323       15.3718566869
  H         6.6459509743        5.6850446018       15.9857608015
  H        11.4524139004        7.7391672717        5.2985617461
  H        11.8534586798        7.2907127234        3.5975034890
  C        12.9418799549        6.0605322538        5.1342964441
  H         8.8915295628        7.4344404451        4.6770977282
  H         9.6493547652        7.3922351130        3.0974931456
  C         8.0617565432        5.9219335911        3.4537719433
  H        11.2459143164        4.9386659246        1.5650814956
  C        11.5196218678        2.1439658740        0.9572494568
  H        11.6516195513        0.9424736147       14.6618492764
  H        13.2004521388        0.5301112920       14.1122058435
  C        13.3219620019        1.4978214608       15.9941470582
  C         6.4318340074        8.5540266981       16.6040609789
  H        12.7394663285        5.7737050269        6.1823080534
  H        13.0121323571        5.1222097969        4.6586436745
  C        14.1961142983        6.8768968596        5.3699507380
  H         7.7045073838        5.3158513956        4.2557960041
  H         8.2918149660        5.2271488423        2.6640844877
  C         7.0568767855        6.9927161004        3.0161358147
  C        11.6802987339        0.8075214439        0.8953903346
  C        11.8490429857        2.9399576633       -0.2710151241
  H        14.1874492503        2.1578758059       15.9561444461
  H        13.6417322306        0.5434103971       16.3625874164
  C        12.3139516781        2.0761541981       16.9884058980
  H         6.4522732966        9.5717113278       16.5751610429
  C         6.1465778146        8.0427795225       17.8343026069
  H        13.9460750393        7.4404950812        6.1689700640
  H        14.3873610304        7.5353588021        4.5386517787
  C        15.3959599899        6.0253435714        5.6399003189
  H         6.6502258559        7.5906288786        3.8025921719
  H         7.5421414825        7.7336744991        2.3728418042
  C         5.9541832285        6.4043566415        2.2131014049
  N        11.4399773142       -0.0478277055        1.9614938588
  C        12.0203142956        0.1367894406       -0.2345571337
  C        12.1662567547        2.2917540990       -1.4433281086
  H        11.7586003342        4.0050469478       -0.2731441359
  H        11.2423806588        2.0188166294       16.6966690692
  H        12.6717702037        3.1211571851       17.1339300961
  H        12.5277590178        1.7353502987       17.9004914685
  S         5.9405912702        6.4581345953       18.2861326267
  C         6.0012006069        9.0065088137       18.9422945088
  H        15.2310456368        5.0530576213        5.2700026408
  H        16.2514101829        6.4095620162        5.1134895038
  C        15.6532584689        5.6692568965        7.1006546096
  H         5.3723881317        5.7949746355        2.8612027881
  H         6.3246768669        5.7514926640        1.5216391229
  C         5.1039324077        7.2885800711        1.2862957193
  S        11.5401640448       -1.5667965131        1.3895033574
  N        11.8948657151       -1.2189821085       -0.1678935655
  C        12.2457334946        0.7804397025       -1.4675167003
  H        12.1849923871        2.8377443861       -2.3530800565
  C         5.7350620728        7.1035814259       19.9522364499
  N         5.8346957039        8.3599911948       20.0563298411
  O         6.0701060523       10.2407051705       18.7498709216
  H        15.5843634135        6.5973355103        7.7241027698
  H        14.7615855219        5.0704567423        7.4121743672
  C        16.8707227491        4.8690431894        7.1849870421
  H         5.8135289398        7.5736819538        0.5152831171
  H         4.3718614415        6.7631409051        0.7782466978
  C         4.2868556123        8.3457744150        2.0296515038
  C        12.5844743891       -0.0339859822       -2.6455644857
  S         5.4062626033        6.1174698839       21.3987271801
  C         6.0469832443        8.9989588311       21.3471412435
  H        16.7345058197        4.0868091898        7.9201279334
  H        16.7346466480        4.2787936107        6.3239850180
  C        18.1065811771        5.7217530810        7.1168055739
  H         4.9859293171        8.9339198092        2.6605666808
  H         3.5186696463        7.8742362224        2.6194790559
  C         3.5285571246        9.2630341718        1.0136488225
  H        12.2889200946       -1.0711836717       -2.4986738520
  C        13.2072049039        0.2868893631       -3.8498748514
  H         5.5147871356        8.5850993966       22.1850797237
  H         5.6676948963       10.0150369809       21.2696807912
  C         7.5225182613        9.0771425555       21.6554456393
  H        18.7158500121        5.5993017241        8.0308236251
  H        17.8019543502        6.7524958360        6.8352838803
  C        18.9514219399        5.1418221870        6.0344001762
  H         3.1224089692        8.6730550294        0.1138938350
  H         2.6635829543        9.6478350865        1.5058406874
  C         4.4621700562       10.3120958808        0.3398199737
  S        13.8397616061        1.8392717082       -4.3099518446
  C        13.5003007950       -0.7253919458       -4.8418000055
  H         8.1318177386        9.2305527093       20.7790719391
  H         7.9025310558        8.2013761405       22.2463537393
  H         7.6487618496        9.9547371130       22.3091606886
  H        19.9806509480        5.4101658518        6.1090831752
  H        18.9115923728        4.0794248384        5.9976455791
  H        18.5187902378        5.6123686212        5.1466297320
  H         5.0654067041        9.8980131714       -0.4681679015
  H         3.9615001155       11.2331343812       -0.0299217388
  H         5.0938509881       10.6936953721        1.1041566433
  C        14.1317928951        1.0991010042       -5.9180985916
  N        13.9748309279       -0.2166155995       -5.9302208571
  O        13.2713500855       -1.9696074273       -4.7138323403
  S        14.8565631083        1.8908868186       -7.3136071372
  C        14.1728169184       -0.9952841265       -7.0835749490
  H        14.2218764381       -2.0948003200       -6.9568582839
  H        15.1229185073       -0.8144849832       -7.5477605171
  C        12.9530705781       -1.0255192559       -7.9243169538
  H        12.7229994433       -0.0618412267       -8.2862910656
  H        11.9972672415       -1.3426163602       -7.4198071396
  H        13.0217051259       -1.6501712650       -8.7698843967
  H        -4.1352480282       14.3441416407       16.4643357091
  C        -3.6817090002       13.3743442365       16.6239567501
  H        -4.4839051412       12.7405954231       16.9315647576
  C        -2.4898528688       13.3340849810       17.6445761134
  C        -3.2536798652       13.0487701090       15.1931523634
  C        -3.1236800456       13.3828171668       19.0468274828
  H        -2.0618195576       12.3608187738       17.5152099259
  H        -1.8378982469       14.2104273826       17.5959770992
  H        -3.7672062292       12.2322285276       14.6228970080
  H        -3.4851201865       13.9381483927       14.6687077905
  H        -2.1090269877       12.9417072328       15.1025376074
  C        -2.0447257540       13.2425303893       20.1598178972
  H        -3.8627816417       12.6679645212       19.2404011038
  H        -3.5256356749       14.3624167718       19.2235313337
  C        -2.5512369681       13.2921119791       21.6028597010
  H        -1.5671218353       12.2786921133       19.9559695644
  H        -1.2306841850       13.9580633712       19.9818860639
  C        -1.5228291906       12.7539320052       22.5329975690
  H        -3.4754029726       12.6029288724       21.8049165013
  H        -2.8969368360       14.2462560834       21.8424720012
  C        -0.2831649890       13.6864023372       22.6549602840
  H        -1.9652256488       12.6769877767       23.4533916458
  H        -1.2363341945       11.7484598655       22.3189211214
  C         0.9067354354       12.9825216941       23.3100265524
  H         0.0929196492       14.0884274504       21.7240362947
  H        -0.5733467192       14.5561485169       23.2440182723
  C         1.1813094614       11.6297182585       22.6096522835
  C         0.5012259611       12.2925150493       24.5898328527
  C         2.2113407128       13.8405074656       23.3479013995
  C         1.0762867021       10.5598922053       23.5195142894
  C         1.6964032787       11.2494559095       21.4219840111
  C         0.5955373954       10.9828353853       24.7587806340
  C        -0.0201303454       13.0108126778       25.6818409396
  H         2.2908240983       14.3497388457       22.4133063472
  H         2.0479216640       14.6435883623       24.0847139934
  C         3.5619985272       13.0622699453       23.5523232350
  S         1.4872619330        9.0065260558       22.7974091270
  C         1.7602203760        9.8828998254       21.3046973771
  H         1.9869956221       12.0290935272       20.7582583352
  C         0.2270187442       10.3387922104       25.9141342678
  H        -0.0254362774       14.1186662192       25.7025744734
  C        -0.3676209755       12.4195143851       26.8198151644
  H         3.7273677337       12.2757199205       22.9310871429
  H         3.3318661859       12.4281303979       24.4210564857
  C         4.8666339470       13.8899576072       23.8542628618
  C         2.1266890687        9.1758636416       20.0206626231
  C        -0.3260818617       11.0650177137       26.9660869995
  H         0.4190612815        9.3429882769       25.9262149179
  C        -0.8154333682       12.9218392625       28.0371385483
  H         5.5288390823       13.2426060144       24.3087467136
  H         4.7597541901       14.7990068557       24.5795353959
  C         5.3325322795       14.5622339473       22.5794966904
  C         2.1529021207        7.7687687886       19.7173027896
  C         2.5465038100       10.0049022388       18.9226248491
  C        -0.6894686195       10.4288175478       28.2486119390
  C        -1.0355554592       11.7853380550       28.8593805198
  S        -1.1630822173       14.4333745243       28.8028805722
  H         5.7770863113       15.5568601721       22.9196393185
  H         4.5184662177       15.0243109287       22.1034588000
  C         6.3352448270       13.6583430108       21.8357062650
  N         1.9276391463        6.7293093075       20.6573245985
  C         2.5150741443        7.2764933169       18.5099959491
  C         2.9555919931        9.5197143245       17.7076341723
  H         2.4444212941       11.1028290358       18.9651149247
  C         0.4213222936        9.6669951765       28.9904316751
  C        -1.9386398600        9.5195238647       28.0472420842
  C        -1.3223818465       12.2236740501       30.1380036742
  C        -1.5227648820       13.6063454139       30.2340998102
  H         7.3298582144       13.9251634158       22.1507138781
  H         6.2384326574       12.6162309949       22.1763045424
  C         6.0445999074       13.6953218086       20.3048021683
  S         2.1607526999        5.3016639598       19.8881772854
  N         2.6999484764        5.8588165342       18.4438251847
  C         2.8645065859        8.0813016489       17.3460133266
  H         3.1933868549       10.2194074463       16.9015115568
  H         0.7427652720        8.8920899445       28.3518811034
  H         0.0259844543        8.9697464295       29.7726826033
  C         1.4374066861       10.6387874627       29.5565307360
  H        -1.5857476820        8.5803339667       27.5312138638
  H        -2.2198479982        9.0888972556       29.0514179734
  C        -3.0723085031       10.2303640339       27.3528353433
  H        -1.2683956029       11.4716415739       30.8850412332
  C        -1.8393171786       14.3393082213       31.4999628057
  H         5.3845295054       14.5438257678       19.9760704278
  H         5.4410779073       12.7291172689       20.0038591959
  C         7.2344033267       13.3725477645       19.4653899727
  C         3.2588445646        7.5126301458       16.0739870746
  H         1.8397844662       11.3653457517       28.7732783992
  H         1.0216138135       11.0806708234       30.4829893105
  C         2.5575432284        9.7168553591       30.0380788426
  H        -2.8642627344       10.4965735725       26.3695055226
  H        -3.1954146072       11.2129741921       27.7579528151
  C        -4.3192801443        9.4479398049       27.2124414427
  C        -1.9169896222       15.7257198119       31.7073996016
  C        -2.1556321746       13.4995712529       32.6911994567
  H         8.0869476002       14.0163058526       19.6871979543
  H         7.7005710528       12.3804805367       19.7575427480
  C         6.8538554404       13.4296592026       17.9543366618
  H         2.9514223498        6.4801600124       16.0798538335
  C         3.5845922971        7.9326106405       14.8470816175
  H         2.7115559480        9.0046483292       29.2607580918
  H         2.0862480525        9.1576363593       30.8930560469
  C         3.8622556168       10.4260179043       30.5567039235
  H        -4.0760092868        8.8604163559       26.3477657323
  H        -4.4445016819        8.8040168600       28.0715847438
  C        -5.5486132384       10.4101819372       26.9684065880
  N        -1.5859709555       16.7660253170       30.8034261577
  C        -2.2752010090       16.3451474431       32.9549626981
  C        -2.3987334174       14.0916555155       33.9559466266
  H        -2.0595363928       12.3905763297       32.6483413050
  H         7.6102912343       13.7178153591       17.2651507860
  H         6.4659067940       12.5025289418       17.5154556950
  H         6.0179736081       14.0529664474       17.8420478612
  S         3.7048955404        9.5857771116       14.3635103761
  C         3.6426689101        6.9153218738       13.7587531470
  H         4.0522826798       11.2349214503       29.8578067979
  H         3.8347449984       10.9162687349       31.5531165628
  C         4.9921895078        9.4367950414       30.4342165554
  H        -5.3663312420       11.0700785552       26.1222209736
  H        -5.8097287756       11.0020281316       27.8530994300
  C        -6.8124045676        9.6466398675       26.6352748996
  S        -1.7512306496       18.2308682578       31.5172218427
  N        -2.2517782110       17.7463891586       32.9591726938
  C        -2.6072105294       15.5521814208       34.1058985433
  H        -2.5594871417       13.4399274037       34.7410863464
  C         4.0083676333        8.8724312418       12.7389526368
  N         3.9987849262        7.5306501957       12.6229392677
  O         3.4621609011        5.7126212749       13.9242173771
  H         5.8259941041        9.8678851733       30.9341777139
  H         5.4195364732        9.2728933520       29.4513139893
  C         4.6302813876        8.0930001593       31.1395085546
  H        -6.6288083330        8.6684326670       26.2325080370
  H        -7.3395876681        9.4801297799       27.5994590733
  C        -7.7179393395       10.4471755586       25.7671257806
  C        -2.9326240765       16.1777695832       35.3126063607
  S         4.3562999390        9.8241231933       11.2870462904
  C         4.0291603705        6.7989751496       11.3847328743
  H         4.1882195353        8.3128883020       32.1656469218
  H         3.8351089148        7.5610884960       30.5561416013
  C         5.8808760581        7.2798202909       31.2592889622
  H        -7.1286499127       10.5796349830       24.8343696304
  H        -7.8624513473       11.4284214209       26.3058115561
  C        -9.0153530891        9.7569301797       25.5077888484
  H        -2.6475504608       17.2161966616       35.2081351235
  C        -3.3164692163       15.8892585154       36.6024499816
  H         4.5918317104        7.2467966988       10.6103011842
  H         4.4023793579        5.8724948978       11.6195155419
  C         2.6379023699        6.7526991765       10.7399692022
  H         5.8665928485        6.6442960002       32.1694930517
  H         6.7228260198        7.9447150063       31.5389303552
  C         6.0745201930        6.3136157826       30.1269406447
  H        -9.3209900990        9.7805470531       24.4784060650
  H        -8.9615850120        8.6766464264       25.6623211829
  C       -10.0304775121       10.2463751369       26.4860565819
  S        -3.6685545597       14.3090333265       37.1610733150
  C        -3.4463277258       16.9969210843       37.5378692306
  H         2.2553378376        5.6750742161       10.7455529744
  H         2.0446387417        7.5253967157       11.3051733166
  H         2.8269340520        7.0592408314        9.7009588358
  H         6.8863336091        5.7127197439       30.3419910817
  H         6.3005298018        6.8231079575       29.1868783951
  H         5.2457244377        5.7593547811       29.9487037045
  H        -9.7124327874       10.1123463103       27.4953425534
  H       -10.9784741331        9.6397489595       26.5173018664
  H       -10.2396078199       11.2890251121       26.3779981719
  C        -4.2008347508       15.1337843648       38.6722548872
  N        -3.9302406320       16.5037382978       38.6907937108
  O        -3.0954350236       18.1712178727       37.2035660744
  S        -4.8690212557       14.3546925824       40.0745408765
  C        -4.1376150120       17.4304790917       39.8647298522
  H        -4.3600216368       18.4802102584       39.6371938076
  H        -4.9872197733       17.2191387050       40.3955597408
  C        -2.8870038654       17.1962911425       40.6859812520
  H        -2.6792806301       18.1221962896       41.1886885590
  H        -3.0201798990       16.4303444250       41.4756378371
  H        -1.9036859109       16.9870660479       40.1160831491
