352
i=
  H         4.6206370589        3.6152891437       12.3125354031
  C         3.5052857958        3.4017960182       12.4276720343
  H         2.9281173134        4.2929776502       12.3652603813
  C         3.0154570868        2.6108745533       11.2324739868
  C         3.1133236300        2.8055046290       13.7771466000
  C         3.7287920311        2.8889832544        9.9014442385
  H         1.9630247627        2.8903331127       11.1630207405
  H         3.0876015277        1.5834866309       11.5155297111
  H         3.0265188398        1.7537776788       13.6874724517
  H         2.2136194514        3.2206159482       14.1145726943
  H         3.8467419898        3.0629737201       14.5142082914
  C         4.6715823922        1.7896524450        9.4124128565
  H         3.0282672461        3.1492160403        9.1157945906
  H         4.2076344259        3.8213813209       10.0624604083
  C         5.6484798600        2.2748466291        8.3202557289
  H         4.0698639383        1.0812822225        8.8721863659
  H         5.2171352636        1.3803794082       10.2871857836
  C         6.7495629274        3.0842239064        8.9384704284
  H         5.0258133886        2.8608752296        7.6928694495
  H         6.0252765726        1.4738361310        7.6531017237
  C         8.0824515639        2.3343189132        8.9214029389
  H         6.7145260838        4.0066114115        8.3890414861
  H         6.4448353178        3.2388449455        9.9322391110
  C         9.3145422018        3.1671729662        9.1998784802
  H         8.0965974266        1.9058097948        7.9195499533
  H         7.9920657398        1.6307268629        9.7577494849
  C         8.9698061383        4.4687707418        9.8682670477
  C         9.7152126978        3.9276477792        7.9945469634
  C        10.4991758803        2.4192054275        9.8553922417
  C         9.2526330217        5.5996945651        9.1036637033
  C         8.5315540426        4.8795306288       11.1592751812
  C         9.7624931623        5.2688393335        7.8931993309
  C        10.1490229768        3.3089500463        6.8392092762
  H        10.1384023335        2.0179055781       10.8036706103
  H        10.7910424733        1.5914440050        9.2730207358
  C        11.6993923425        3.2811313085       10.0363270301
  S         8.8988763582        7.1112020494        9.9198410808
  C         8.4311948225        6.2153327734       11.3275636259
  H         8.2680284228        4.1565749046       11.8377951335
  C        10.1782099657        5.9540328978        6.7820549814
  H        10.2704210884        2.2067110993        6.9686952318
  C        10.5872064711        3.9286153529        5.6799120931
  H        11.4561333897        4.2991612149       10.4607217819
  H        12.2455286383        3.5016283708        9.1729168255
  C        12.7419446999        2.8538532427       11.0512755306
  C         7.9571203849        6.9015561846       12.6052497545
  C        10.5840851359        5.2975141364        5.6391474236
  H        10.1336002163        7.0219132183        6.9613912361
  C        11.0175636368        3.5661506468        4.4286425031
  H        13.7333544913        3.2258049693       10.7860044029
  H        13.0136741226        1.8578668611       11.1243082309
  C        12.4250841901        3.1930429080       12.5225924142
  C         7.9540393521        8.2920160787       12.8835638005
  C         7.5529088371        6.0436840705       13.7529000023
  C        11.0455257836        5.9718709981        4.3957611499
  C        11.3679046621        4.6155545732        3.6047931820
  S        11.2922833179        2.0147200277        3.7501697497
  H        12.8890224291        4.1492961563       12.7483478625
  H        11.4057937613        3.2861278449       12.7024822605
  C        12.8955100969        2.1738410144       13.5407035091
  N         8.0884610293        9.2547529584       11.8844159507
  C         7.6893231324        8.8531259166       14.1003799085
  C         7.2751359493        6.6578313234       14.9903863464
  H         7.1471418790        5.0812403213       13.6605911693
  C        12.3627611711        6.7549983439        4.6758657152
  C        10.0445528119        6.6783145329        3.5679757090
  C        11.8896362213        4.2378566416        2.3917235000
  C        11.8270271938        2.8765881704        2.2249547670
  H        13.9146354788        2.0860769036       13.3511540288
  H        12.3372103517        1.2337582966       13.3578481021
  C        12.6360176557        2.5785240133       14.9941099461
  S         8.3830182406       10.6984906094       12.6072651682
  N         7.7835386923       10.2929029340       14.0908288309
  C         7.3760391501        8.0837741585       15.2654035953
  H         6.8160482693        6.0444362753       15.7640116572
  H        12.1750583623        7.4718011049        5.5157422134
  H        12.6327387901        7.3054731822        3.7472778273
  C        13.5212731731        5.8698262309        5.1491714028
  H         9.8571994341        7.4926337101        4.2495636876
  H        10.5104582056        7.0436743727        2.6180201077
  C         8.6715177651        5.9339680095        3.3625747931
  H        12.0500333761        5.0199982480        1.6036096572
  C        12.1506685530        2.0471280572        1.0305835961
  H        12.9236758812        3.6611473770       15.2111864814
  H        11.5417302086        2.5681374571       15.1834762764
  C        13.3002023366        1.7495557084       16.0153773319
  C         6.9626523266        8.6223161163       16.4625114358
  H        13.1433383748        5.4002552483        6.1267432537
  H        13.7149552192        5.0974222349        4.4047953036
  C        14.8001968424        6.6421441795        5.4805612947
  H         8.1286171441        5.9737825865        4.3757644390
  H         8.7159509590        4.8320910763        3.3123321140
  C         7.9051055258        6.4476976917        2.1432997604
  C        12.1082654774        0.6258022648        0.9448527445
  C        12.5449482326        2.6839974164       -0.2374138308
  H        14.2044587455        2.2766020056       16.3218968420
  H        13.5932732731        0.7952154862       15.4903030091
  C        12.4124201085        1.4670009598       17.2124887750
  H         7.2120367302        9.6414121857       16.5251611780
  C         6.5366045135        8.0417864322       17.6503404683
  H        14.5629389080        7.3194167020        6.2578696333
  H        15.0438114819        7.3225347677        4.6817491202
  C        15.9892104063        5.7264535214        5.7516002442
  H         7.6853306775        7.5395168993        2.0990568643
  H         8.4666375237        6.3177160356        1.2542787255
  C         6.5439425337        5.7778933710        2.0915330260
  N        11.7466098800       -0.1833643226        2.0577203404
  C        12.5137910244       -0.0973861120       -0.1322666780
  C        12.7732685080        1.9693806169       -1.4209347919
  H        12.5884948681        3.7786765476       -0.3044606249
  H        12.0158221099        2.4161299390       17.6710040604
  H        12.7658729951        0.8355089855       17.9718089939
  H        11.4956923243        0.9810040241       16.8928373867
  S         6.1385067589        6.4185187305       18.0003126114
  C         6.4741405110        8.9331500421       18.8815690681
  H        15.7253107549        4.7569818341        6.2585616681
  H        16.5367554164        5.5180196932        4.8210654397
  C        16.9284758030        6.3304586249        6.7838647603
  H         6.3720089282        5.0652168862        2.8777217918
  H         6.2996514231        5.3187154054        1.0937951658
  C         5.4350752618        6.8508393273        2.3611699530
  S        11.8616452201       -1.7511939828        1.5073719590
  N        12.4121619931       -1.4714790254        0.0634777405
  C        12.8609356534        0.4897270521       -1.3517545540
  H        12.9896145697        2.5314632259       -2.2772543322
  C         5.9489990802        6.9382764706       19.7255262781
  N         6.1815538780        8.2624706958       19.9796312827
  O         6.4834163107       10.2062241066       18.7752642173
  H        17.2702580108        7.2307069765        6.3311635504
  H        16.4008898587        6.7050408033        7.7098699455
  C        17.9190740270        5.3138386977        7.1063712918
  H         4.5436858872        6.3022434465        2.6494007209
  H         5.7575909997        7.5139000690        3.2151813098
  C         5.0698055193        7.7142224454        1.1500232031
  C        13.1520284875       -0.3631657275       -2.4585701323
  S         5.7085558635        5.9796162621       21.1699593404
  C         6.3702577085        8.8827402886       21.3098553452
  H        17.5188765267        4.4095369969        7.6227290225
  H        18.4156882630        5.0151036305        6.0987325826
  C        19.1306665403        6.0078167092        7.7501094013
  H         4.8336154789        7.0868391376        0.2527712355
  H         5.9521553389        8.3336289971        0.8272293935
  C         3.9071056419        8.6768739910        1.4344557762
  H        13.0061751185       -1.4038271559       -2.2458676253
  C        13.6379333025       -0.1091332396       -3.7208058518
  H         5.7612401520        8.4236790784       22.1153846883
  H         5.9145262602        9.8958754646       21.1631991045
  C         7.8506107710        8.9526270519       21.7082451351
  H        19.5411133094        5.4445625681        8.5674435721
  H        18.9418544095        7.0215043657        8.0926777234
  C        20.1939741698        6.3335519245        6.6995320909
  H         3.5729077152        9.0849246635        0.4093819351
  H         3.0280923978        8.2765553893        1.8990287813
  C         4.4246486247        9.7356540795        2.3639629516
  S        13.9182315949        1.4536678556       -4.3507775962
  C        13.8468620341       -1.1943962277       -4.7555488661
  H         7.9195110189        9.5382184297       22.6224691976
  H         8.5861368268        9.4983403097       21.1037660712
  H         8.3062180699        8.0642215406       22.2128784240
  H        21.0390034220        6.8031570835        7.2512063777
  H        20.6180909822        5.4442785151        6.2087098900
  H        19.7296307323        7.1218416793        6.0160711788
  H         5.4109672207        9.4435163976        2.6227941181
  H         4.5564165535       10.6877691674        1.8510431401
  H         3.8980629977        9.7788792345        3.3088081465
  C        14.6192650062        0.7337801681       -5.7794448980
  N        14.4382758458       -0.6225452127       -5.8506819803
  O        13.5269202790       -2.3555230947       -4.5764530698
  S        15.3471918889        1.5376371511       -7.0985068173
  C        14.7019218358       -1.4352435706       -7.0726661743
  H        14.7664470321       -2.4409539649       -6.7541411136
  H        15.7085613097       -1.1192627589       -7.4475043063
  C        13.6344347126       -1.2518795036       -8.1652197246
  H        13.1490127089       -0.2520460338       -8.0269625355
  H        12.8918303525       -2.0130983741       -8.1074784704
  H        14.0795246578       -1.2779805862       -9.1732685822
  H        -3.3127079886       15.1731085896       16.5068099470
  C        -3.3979400089       14.0527147738       16.5552466666
  H        -4.3649104655       13.8365550647       16.9223812679
  C        -2.4439336519       13.3543559280       17.6300784367
  C        -3.2285940562       13.4648554833       15.0610489454
  C        -2.9259453751       13.3621959051       19.1054499885
  H        -2.1508037608       12.2603534804       17.4741288898
  H        -1.4975515786       13.9123825936       17.5360320393
  H        -2.1457203440       13.4892285842       14.7976713394
  H        -3.6799293644       12.5315760600       14.7761166197
  H        -3.8727607145       14.1982812867       14.4512357237
  C        -1.7656144156       13.1937878965       20.1421843807
  H        -3.6170182607       12.5291064417       19.2760214013
  H        -3.4725392368       14.2489116645       19.4881409512
  C        -2.2161011895       13.1024991094       21.6579329495
  H        -1.1988411298       12.3718958176       19.8015591423
  H        -1.0229170671       14.0237765029       19.9990533514
  C        -1.1131225603       12.4453528309       22.4649760128
  H        -3.1054484117       12.4241872734       21.8679034755
  H        -2.5665073109       14.0747104247       22.0710419097
  C        -0.0582628066       13.4714106123       22.8126946308
  H        -1.4190433785       12.0386325296       23.4284838740
  H        -0.6843955005       11.5800168967       21.9120813373
  C         1.1577837078       12.9991331637       23.6071819695
  H         0.1905684455       14.0502936158       21.8639159712
  H        -0.5143281633       14.1389102998       23.5504754958
  C         1.6097065595       11.6958833844       22.9187854056
  C         0.9030757916       12.2515843114       24.8739885028
  C         2.3356309096       14.0491870520       23.7657155482
  C         1.4747107121       10.5409515220       23.6824447512
  C         2.0767603996       11.3954103039       21.6498264028
  C         1.0166326485       10.9169660513       24.9377705744
  C         0.3110340177       12.7480101228       26.0075045136
  H         2.5760290868       14.5271033258       22.8179026328
  H         1.9865873154       14.7710418949       24.5007019971
  C         3.7009118914       13.4928730260       24.2277471329
  S         1.7115689833        9.0823857410       22.8168506994
  C         2.1354912299       10.0225234731       21.4281961771
  H         2.2430657705       12.1176968175       20.9202968478
  C         0.6310877428       10.2348150326       26.0856466497
  H         0.3909912430       13.7581526245       26.0289734258
  C        -0.0971201723       12.1043647028       27.1157350068
  H         4.0699152268       12.6898054020       23.6097303054
  H         3.5756949579       13.0590232481       25.2312981871
  C         4.7735621504       14.5422320196       24.3941059641
  C         2.4438894596        9.3662443302       20.0911237102
  C        -0.0025697094       10.8048026703       27.1496664958
  H         0.6135503047        9.1691460899       26.0321546584
  C        -0.4418106766       12.5005848333       28.4127013944
  H         5.5356728208       14.2166918006       25.1264066786
  H         4.3480444986       15.5254547363       24.7659464091
  C         5.5209928189       14.8274638399       23.0756991155
  C         2.4571107792        7.9557629719       19.8198855016
  C         2.8461727169       10.2306014778       18.9554850292
  C        -0.3524896119       10.0270383495       28.3532174158
  C        -0.6441811089       11.3707652098       29.1765101684
  S        -0.7131328628       13.9703341074       29.2569283285
  H         5.8516444452       15.9136056329       23.1063000522
  H         4.7716739713       14.7640653022       22.2829290419
  C         6.7476739844       13.9670588235       22.7925582639
  N         2.3450331063        6.9532078508       20.7264173368
  C         2.8163107908        7.4969711820       18.5380599924
  C         3.2276465830        9.7708240018       17.6995529252
  H         3.0619794810       11.2310572347       19.1552676369
  C         0.9166003031        9.3467759638       29.0577600170
  C        -1.6624353364        9.1614660289       28.1972766020
  C        -1.0156504442       11.7292445239       30.4922907176
  C        -1.2054227048       13.0895993620       30.6192277033
  H         7.4559296474       14.5788545007       22.4911690634
  H         7.0187906945       13.5058039409       23.7614162194
  C         6.4950078544       12.9531485033       21.6188012843
  S         2.6161253117        5.5657598891       20.0503383894
  N         2.8291654616        6.0895915518       18.5020789678
  C         3.1274191337        8.2949237320       17.4145178414
  H         3.5055264102       10.4852034183       16.9942566250
  H         1.5245922639        8.6464024739       28.4966226332
  H         0.4749088115        8.6506978234       29.7620308315
  C         1.9031085552       10.2715141223       29.7174813985
  H        -1.5469159253        8.3243412589       27.4702035858
  H        -1.9241383654        8.6765868528       29.1230411326
  C        -2.8830940168        9.9627253873       27.8334188240
  H        -1.1131230293       10.9810779504       31.2487609047
  C        -1.3534225456       13.7583087485       31.9728606028
  H         5.4639150685       12.8961476019       21.3403467161
  H         6.8787494333       12.0399871879       22.0371506693
  C         7.3072848703       13.3232426401       20.4119174960
  C         3.4393420822        7.7256222881       16.1780149079
  H         2.1850517378       11.0327773674       29.0045474166
  H         1.5018215434       10.7933902406       30.5870363164
  C         3.1629502877        9.5482577773       30.1143197819
  H        -2.6055022049       10.6576079640       27.0369391573
  H        -3.1045651353       10.6010801783       28.7123337563
  C        -4.1149906008        9.0899709784       27.4216069247
  C        -1.3270687460       15.1256657916       32.1979134588
  C        -1.5314812052       12.9016044359       33.1784688142
  H         8.2912949816       13.8022819627       20.5572425956
  H         7.6005265651       12.4489330733       19.8555704824
  C         6.4959370347       14.2123864294       19.4626065357
  H         3.0924534659        6.6686560329       16.1599475087
  C         3.8583484222        8.1521633450       14.9423222788
  H         3.6781573915        9.1697551862       29.2315425157
  H         2.8165438186        8.6402826429       30.6097470381
  C         4.0474444366       10.4646762998       30.9535285830
  H        -3.9277609379        8.4010330335       26.5570208573
  H        -4.3491985424        8.4536464033       28.2529931793
  C        -5.3771050974        9.8723783990       27.1937457971
  N        -1.0815476914       16.0485466104       31.1777483467
  C        -1.5186992430       15.6849535519       33.4064161653
  C        -1.7018981506       13.4904447114       34.4164477816
  H        -1.4804733430       11.8803189650       33.1043402896
  H         5.9939025395       13.7996557743       18.5436358028
  H         5.7477265756       14.7819443611       20.0027173725
  H         7.2222834879       14.8858943890       19.0138580950
  S         4.1708899184        9.8086495726       14.5248316534
  C         4.1364447459        7.1960977016       13.8678670626
  H         3.8392290440       11.4005984380       30.4066767609
  H         3.6373453963       10.5790586895       31.9900344152
  C         5.4955231369       10.0006235190       31.0749582891
  H        -5.2601364727       10.7535773549       27.8534885269
  H        -6.2138991770        9.1884213590       27.4975047842
  C        -5.4813120114       10.2978900740       25.7242745145
  S        -1.1130579240       17.5376592904       31.8601874437
  N        -1.5015405046       17.0485163165       33.4207219141
  C        -1.6833020978       14.9154430084       34.6182113395
  H        -1.7604251464       12.8595146002       35.2168949127
  C         4.5930367273        9.1643432812       12.8927701906
  N         4.5030749550        7.8276594532       12.7565285286
  O         4.2175462107        5.9770726195       14.0633955607
  H         6.0274603232       10.7559205195       31.6623079237
  H         6.0731505150        9.9297223666       30.0930475095
  C         5.5898289541        8.5804104679       31.6726592890
  H        -4.5843432268       10.8414959232       25.5606011430
  H        -5.3885042369        9.4624816381       25.0388580504
  C        -6.6545464051       11.1113843516       25.3599494582
  C        -1.9310422899       15.6068997014       35.8944305633
  S         5.0863817742       10.0815308211       11.4446004712
  C         4.7866281685        7.1324886189       11.4516221796
  H         6.3135361122        8.6900076176       32.4948869412
  H         4.6428572048        8.4044098515       32.1546297893
  C         5.8443990879        7.5279694310       30.5857770653
  H        -6.5683516867       11.4446679603       24.3545007776
  H        -6.5185832593       11.9724588975       26.0862096351
  C        -7.9354464524       10.4257530860       25.6102499380
  H        -1.8522857629       16.7217325362       35.7813492204
  C        -2.6787689336       15.2645890023       37.0339138355
  H         5.5296128362        7.5352839665       10.7537724979
  H         5.1616356168        6.1076520164       11.6897690267
  C         3.5104766274        7.0074051367       10.7090737816
  H         5.1332412272        7.6665840297       29.8084397267
  H         5.6160870287        6.5425274928       30.9788937765
  C         7.3207644002        7.5024675744       29.9705196179
  H        -8.5586740185       10.3781727112       24.7735310896
  H        -7.6719183459        9.3571759543       25.7099561144
  C        -8.7065606705       10.8610522489       26.8944987482
  S        -3.4648745198       13.8094804070       37.3363161880
  C        -2.8259428164       16.2830446259       38.0318227395
  H         3.5925880460        6.2699424541        9.8722354465
  H         2.8695736377        6.4535530410       11.4477298491
  H         3.2012923880        7.9804552412       10.4567036099
  H         7.2786329657        7.7241078531       28.9449996268
  H         7.8463140656        6.5402652204       30.0347328417
  H         7.8527259190        8.3095214645       30.4454459722
  H        -9.7430435574       10.3419914894       26.9935929684
  H        -8.8605153313       11.9454419845       26.9103182634
  H        -8.1303733084       10.5763561308       27.7111884637
  C        -3.9828617789       14.5050952570       38.9024716396
  N        -3.6095637189       15.7802085839       39.0061467245
  O        -2.3575295806       17.4515933454       37.9444650364
  S        -4.9245273951       13.7797976909       40.1199156776
  C        -3.7223995901       16.5476029185       40.2194952329
  H        -3.9548731503       17.6452835187       39.9513011137
  H        -4.6368204393       16.1824068411       40.7917913613
  C        -2.4594129750       16.4752198967       40.9974380339
  H        -1.7313584512       17.1774210771       40.6623266626
  H        -2.5902542183       16.7161831304       42.0450585164
  H        -2.0129928301       15.4738077653       40.9429972642
