352
i=
  H         3.9552845400        0.8244753227       12.4096350217
  C         3.6840146877        1.8385920538       12.5055896463
  H         4.3293503315        2.5706627688       12.4421345152
  C         2.8719742541        2.0233906606       11.1829140899
  C         2.8205165123        1.8660047649       13.7442583916
  C         3.7222439974        2.3825278496       10.0199507362
  H         2.0495795365        2.6587368123       11.3689661937
  H         2.4767871550        0.9749501600       10.9035929945
  H         2.0456221812        1.0477275275       13.9114007164
  H         2.0838683875        2.6540521313       13.7068223976
  H         3.5777433835        1.9513930484       14.4972494664
  C         4.6163913182        1.1900556863        9.4691018188
  H         2.9674381438        2.6154964641        9.2464287315
  H         4.2916072420        3.2651812187       10.3282945541
  C         5.3335131630        1.5409348559        8.1290485995
  H         3.8087814421        0.4159329157        9.1776633646
  H         5.3694879225        0.8327558809       10.2359459211
  C         6.4872808438        2.4895378906        8.4570616782
  H         4.7414692411        2.1140811432        7.4445677937
  H         5.7121132759        0.6693341735        7.6354519392
  C         7.6695912987        1.7987669789        9.0573360139
  H         6.7264082873        2.9750416027        7.6316765361
  H         6.3474116448        3.2187160492        9.1340858309
  C         9.0291386032        2.6139407563        9.1948732837
  H         8.0841301326        0.7967244347        8.6343148132
  H         7.3674768767        1.4790878677       10.0668829182
  C         8.7002435309        3.9330040730        9.9085912826
  C         9.4679057106        3.3268086706        7.9774869986
  C        10.2262566539        1.8100993603        9.7522627855
  C         8.8885574468        4.9959004271        9.0645182707
  C         8.2109889150        4.2919572879       11.0947956019
  C         9.3200564217        4.6447043088        7.8180407384
  C         9.9798955341        2.6731462510        6.8371332394
  H         9.8003984662        1.3315751202       10.5695379136
  H        10.4286304420        0.9301299042        9.3047136384
  C        11.4980611924        2.6935144948       10.0872435970
  S         8.5324959019        6.5083184726        9.8581624769
  C         8.0134105257        5.6369045701       11.2369227021
  H         7.8761658883        3.6220174839       11.9132115148
  C         9.6574398920        5.2811736264        6.6035348403
  H        10.0637367695        1.5899372546        7.0195065355
  C        10.3094173605        3.3351365494        5.7064095560
  H        11.2257697331        3.6207548214       10.5090322758
  H        12.0619716893        2.9406452913        9.2566839064
  C        12.5727367871        2.0462364345       11.0180636631
  C         7.5907268633        6.4688205090       12.4985763447
  C        10.2502709393        4.6796148374        5.5509652317
  H         9.4928521557        6.4111025285        6.6167927637
  C        10.8328076793        2.9491322684        4.4216879350
  H        13.5072407795        2.6480322033       11.2323765567
  H        12.8976734265        1.1666414679       10.5499481378
  C        11.9371187320        1.7527906207       12.3526671577
  C         7.4600745344        7.8382990761       12.5666775726
  C         7.1482634348        5.7376031542       13.6173939375
  C        10.7667905852        5.3693011160        4.2305958305
  C        11.0064415641        4.0035875989        3.5450202897
  S        11.0960415635        1.4017142755        3.5757967803
  H        11.0104850798        2.3928489402       12.4755634631
  H        11.6432458230        0.5893750227       12.4012050142
  C        12.9141182050        2.1648356971       13.5630281279
  N         7.8179252025        8.7788338059       11.5853776742
  C         7.1408095023        8.5155272345       13.7678656650
  C         6.7838818800        6.3756339239       14.8171462095
  H         7.0015943399        4.6401060318       13.4494247258
  C        12.0403873958        6.1996409466        4.5698193693
  C         9.5683031572        6.1359747942        3.5281290483
  C        11.4224214372        3.5354166549        2.2579293757
  C        11.4459305964        2.2008992165        2.1052323408
  H        13.2316831794        3.2171907154       13.2502786673
  H        13.7443913757        1.4368624587       13.4051830774
  C        12.2571014614        2.3162377492       14.9370861134
  S         7.7328745175       10.2675366978       12.2333311475
  N         7.1830641024        9.9052994805       13.7227179486
  C         6.7440743781        7.8634423945       14.9382337606
  H         6.6419606597        5.6708207741       15.4923092633
  H        11.7530620468        6.9551141660        5.3020741612
  H        12.2735775830        6.8485096593        3.6218205839
  C        13.2633218841        5.4213632102        4.9824369231
  H         9.2939935374        6.9993599320        4.1599715309
  H         9.9738193576        6.5070912238        2.6002844197
  C         8.2397136419        5.2286600004        3.2656808051
  H        11.7263213866        4.3010472843        1.5325884713
  C        11.7710659752        1.4847067055        0.7961968307
  H        11.8384439236        3.3553112992       14.9315812412
  H        11.5409627828        1.5205502161       14.9969436327
  C        13.3482741912        2.1792908837       16.0610858737
  C         6.5444848185        8.5354894699       16.1443196868
  H        13.0951062877        4.6658211378        5.6283491594
  H        13.6623166654        4.8711582802        4.0064886616
  C        14.4893147000        6.1313601756        5.5877368444
  H         8.0452851295        4.4784736979        4.0179564600
  H         8.6902256526        4.6186050785        2.4243077620
  C         7.1438864139        6.0260517021        2.6957436221
  C        11.8332166325        0.0326875521        0.6484449814
  C        12.0570496570        2.2360344014       -0.4477671791
  H        14.2445626147        2.6431151196       15.6253341928
  H        13.5993029342        1.1362556050       16.4210024686
  C        13.0078628730        3.0536139715       17.2742392107
  H         6.7330577857        9.5685992687       16.3174263731
  C         6.2386525365        8.2164318977       17.4734424861
  H        14.1682063438        6.6750631363        6.4846800249
  H        14.8897688192        6.7652984144        4.7224162345
  C        15.5111371038        5.1810067818        6.0454991266
  H         6.4982087465        6.5335361233        3.4337952951
  H         7.5936341631        6.9361036672        2.1217526964
  C         6.2786881951        5.2254134441        1.7266552954
  N        11.6422592869       -0.8492152195        1.6955632599
  C        12.0895192570       -0.5260738949       -0.5653864021
  C        12.0917744523        1.6174762397       -1.6520088043
  H        12.0928196658        3.3243307086       -0.2986278655
  H        12.6533722032        2.5323010558       18.1306029530
  H        12.3310027378        3.7877331263       17.1094164245
  H        13.9272238788        3.6315032251       17.3548395776
  S         6.1202464370        6.6002876149       18.1306548263
  C         6.3441565532        9.3065208500       18.5376847957
  H        15.0734015172        4.5832982297        6.7851028563
  H        15.8065774098        4.6240661869        5.2819149201
  C        16.6275241133        5.9748588037        6.4526807427
  H         6.0148622536        4.3269960443        2.3248728649
  H         6.6175097380        4.8519659294        0.9074582014
  C         4.8997987014        5.9246191312        1.5012033138
  S        11.7181766316       -2.3283471838        1.0610617477
  N        12.0487358078       -1.9794813495       -0.4967209650
  C        12.2324549377        0.1211338716       -1.7343966477
  H        12.3699890848        2.1897374310       -2.3914821256
  C         5.7850674673        7.3526234280       19.6947118856
  N         5.8713051705        8.6753462530       19.6723131214
  O         6.4350945822       10.5561317328       18.3718719871
  H        17.2123696250        6.5364616249        5.7318679979
  H        16.4435027949        6.7916116200        7.1922206663
  C        17.7619690590        5.1244389590        7.0152933774
  H         4.5443013003        5.4255618682        0.6596827959
  H         4.3000344544        5.7348489544        2.3530950063
  C         5.0332369237        7.3414768093        1.1070018642
  C        12.4509716295       -0.5387857766       -2.9923313809
  S         5.5699499614        6.3308523665       21.0793241107
  C         5.8974893112        9.3497915422       20.8922106429
  H        17.5015885483        4.7497141185        7.9016191511
  H        17.8018297436        4.2490535403        6.3956918506
  C        19.0073164985        5.9157462681        7.0917879599
  H         4.6784437786        7.5765928480        0.1004348383
  H         6.1167656641        7.6716076491        0.9766944846
  C         4.2970839433        8.3819035767        1.9944648333
  H        12.3983368605       -1.6090590665       -2.9649983928
  C        12.9144183416       -0.1605249931       -4.1815681931
  H         5.1529479559        9.1407323373       21.6372535176
  H         5.7376093459       10.3387771172       20.6679790289
  C         7.3515529652        9.2403617532       21.4512567255
  H        19.4753665159        5.3822743928        7.8826139982
  H        18.8725570882        7.0133840020        7.4148330785
  C        19.9655157295        5.8601213131        5.8745665524
  H         3.2521237059        8.1385249515        2.3427562280
  H         4.9599356870        8.7239079269        2.8453495452
  C         4.0498870013        9.7145759791        1.1958871846
  S        13.4372274029        1.3920041243       -4.6818064338
  C        13.1521145107       -1.2003688971       -5.2121056944
  H         7.5687615265       10.1170394801       22.0737204964
  H         8.0414063407        9.3053965911       20.6538147239
  H         7.4135204776        8.4755311779       22.1842854460
  H        21.0348623641        5.7599806451        6.2543042099
  H        19.7591752297        5.0657223661        5.1865954951
  H        19.8770702938        6.7546787619        5.2707268532
  H         3.4863897730       10.3606413419        1.8441548835
  H         4.9798926409       10.2164137756        0.8539319427
  H         3.4199390436        9.3871582756        0.3897718024
  C        13.8499187727        0.7287336076       -6.2422300901
  N        13.6722187944       -0.6446060051       -6.3055907344
  O        12.8819276960       -2.3777365694       -5.0581127840
  S        14.3942439005        1.7000019421       -7.5580163183
  C        13.8817381337       -1.4876853119       -7.5430169474
  H        14.5668896068       -2.2909387041       -7.1808214089
  H        14.6158105049       -0.9049087619       -8.0859531741
  C        12.6624869985       -1.5966149367       -8.4450721423
  H        11.8402550861       -2.1712574908       -8.0135267425
  H        12.9710225157       -1.7840157561       -9.4107894185
  H        12.3930597560       -0.5715267840       -8.5764878147
  H        -3.7985360136       14.4930622921       15.8965740588
  C        -3.1988820181       13.5799039687       16.0257545659
  H        -3.9982895739       12.9062276732       16.4118936666
  C        -2.1315551808       13.6395619587       17.1290271436
  C        -2.5310910000       13.4049775351       14.7165185808
  C        -2.8224533706       13.5720318936       18.4497382926
  H        -1.3845042043       12.9018964811       17.0259976259
  H        -1.3842217854       14.4867291014       17.0874285746
  H        -2.8525719270       14.1667517285       13.9693912972
  H        -1.4293317404       13.3218627258       14.7794198095
  H        -2.6544140076       12.4800496387       14.0684621821
  C        -1.7141340135       13.4094228021       19.6383445243
  H        -3.5301290319       12.7579750248       18.6983999008
  H        -3.3817065474       14.5053968344       18.7552280913
  C        -2.4056117776       13.4915594567       21.0481676377
  H        -1.1626264806       12.4217765116       19.2987675187
  H        -0.9409487564       14.3162166783       19.5560832848
  C        -1.4556738877       13.0196436771       22.0890380074
  H        -3.1946137429       12.7018614558       21.0102407304
  H        -2.9662009451       14.4875123101       21.2024248778
  C        -0.2249933058       13.8538678032       22.3956606481
  H        -1.8924929610       12.9080036441       23.0444477882
  H        -1.0421325382       12.0121132458       21.7787524584
  C         0.8851120861       13.2179016121       23.1881007072
  H         0.0382051984       14.4203177099       21.5093784406
  H        -0.5334275242       14.6720865898       23.1297954554
  C         1.3666225872       11.8928974162       22.5387444791
  C         0.5886375744       12.5365018768       24.5536315189
  C         2.1948810437       14.1358381881       23.2740882749
  C         1.1732395908       10.8496396342       23.4201439683
  C         1.8269137071       11.4991023486       21.2417133533
  C         0.7163722389       11.1725070586       24.6659411696
  C        -0.0088281805       13.1441707338       25.7058166854
  H         2.0638743800       14.5823917521       22.2735357354
  H         1.9501223331       14.9660205773       24.0121880086
  C         3.5841517820       13.4945326055       23.6567525638
  S         1.6558362324        9.3970987292       22.7134856159
  C         2.1081733866       10.1611893312       21.2420220007
  H         2.0074647188       12.4008108583       20.5019459957
  C         0.3667730123       10.5771869029       25.8245681670
  H        -0.1627970398       14.1848358715       25.5649492631
  C        -0.2771084329       12.5206947914       26.8396784269
  H         3.8111338632       12.6791403969       22.8752300397
  H         3.6280459909       12.9336718161       24.6208982899
  C         4.7904001369       14.4221505135       23.7015305547
  C         2.4447799974        9.3538662517       19.9885286973
  C        -0.1444773701       11.1821841658       26.9893484804
  H         0.5374348073        9.4689768967       25.8644089316
  C        -0.8050660728       12.8287522241       28.0757846278
  H         5.4068458476       14.0079968879       24.4200443426
  H         4.5575931739       15.3774838428       24.0473149134
  C         5.5198534760       14.4564247871       22.3467503794
  C         2.4283704493        7.9709123213       19.8445871446
  C         2.8188568534       10.0645219706       18.7756590887
  C        -0.5492144182       10.4544588645       28.2238702954
  C        -0.8398443775       11.7779356866       28.9730562470
  S        -1.3700896139       14.2609041958       28.7286996097
  H         6.1482679555       15.2478436976       22.1577009976
  H         4.8108439796       14.6803548207       21.6099007055
  C         6.4306672630       13.2118070606       22.0842685537
  N         1.9908249863        7.1150333939       20.8251242822
  C         2.5338594938        7.3968566317       18.7111893799
  C         2.9595685035        9.4281861070       17.4959849121
  H         2.9782471720       11.0781930361       18.8390754756
  C         0.5879908362        9.4644956226       28.8033120821
  C        -1.8654019928        9.6761360428       28.0154870161
  C        -1.2523937849       12.1562334254       30.2335640950
  C        -1.6388314261       13.4278484205       30.2431329420
  H         6.9318566178       12.9225833203       22.9557881282
  H         5.8179194818       12.4240206518       21.8096233156
  C         7.4337578457       13.4357252954       20.9885620864
  S         2.0221730084        5.6130543384       20.2799540951
  N         2.3583252707        5.8965506504       18.7648169783
  C         2.8219235619        7.9341485174       17.4273740482
  H         3.1387972848       10.1166927662       16.6792079966
  H         1.0004824091        8.9024385102       28.0099938223
  H         0.2710727396        8.8775517857       29.6004771856
  C         1.7619909141       10.2415987294       29.3665126226
  H        -1.6610117038        8.9059856560       27.3702332122
  H        -2.1371485029        9.0657088970       28.7870937585
  C        -3.0935298651       10.5258732643       27.4733247175
  H        -1.1326068679       11.3636718302       30.9244999406
  C        -1.9171710890       14.2359110636       31.4674324500
  H         8.1999666907       12.7170713782       21.0808698198
  H         7.9130649582       14.4646362240       21.0540816800
  C         6.7074863190       13.3953376147       19.6232052313
  C         3.0238352255        7.1234993164       16.3085876553
  H         2.2372354695       10.7186698398       28.5628365585
  H         1.4832591805       10.9562955601       30.0656702537
  C         2.8545762826        9.2977927042       29.8348535472
  H        -2.7963368110       11.1210152516       26.6331349792
  H        -3.2467124860       11.1422325988       28.2407433275
  C        -4.3776728374        9.7544219708       27.1974346050
  C        -1.9385608390       15.6894144088       31.6309476732
  C        -1.9481112886       13.4694148132       32.7120886626
  H         5.9483354965       12.6560214791       19.6983720604
  H         6.3690044894       14.3692907483       19.2662505770
  C         7.5280936122       13.2819513270       18.3107351027
  H         2.7803705235        6.0703419865       16.3627808435
  C         3.3193284748        7.4616632132       14.9870601818
  H         3.2359670714        8.9326864038       28.9369284553
  H         2.4612836875        8.5196410738       30.4147457684
  C         3.9951439905        9.9673926935       30.5997782456
  H        -4.3175020502        9.0105574919       26.4944979147
  H        -4.6482844097        9.2833722552       28.1224258888
  C        -5.5473022521       10.6212936423       26.7627899997
  N        -1.6432333420       16.5195916209       30.5927761615
  C        -2.1636673046       16.2999507657       32.8003838870
  C        -2.0429408743       14.0937744347       33.9785635428
  H        -1.9732936660       12.4341174216       32.6860647100
  H         6.8509945487       13.3638728260       17.5117745058
  H         8.2008728298       14.1499538802       18.1965518154
  H         8.2473446653       12.3947060305       18.2673196374
  S         3.6572464594        9.0448243452       14.3708171063
  C         3.5367118118        6.3544935588       14.0361763274
  H         4.0528654415       11.0993047834       30.2997788226
  H         3.6919947554       10.1327453866       31.6988272365
  C         5.3015813477        9.2653697964       30.5542049258
  H        -5.2245619724       11.3124679769       26.0542117904
  H        -6.0910195486       11.0559801320       27.6071223616
  C        -6.7541105842        9.8512565588       26.0438240387
  S        -1.7930703428       17.9944330447       31.1359168280
  N        -2.1927519815       17.7296303547       32.6879856526
  C        -2.3012731466       15.5908518538       34.0776337153
  H        -2.1308092403       13.5399379791       34.7334628204
  C         3.9309607435        8.2286759351       12.8161290967
  N         3.9259774444        6.8633845244       12.8531930759
  O         3.6849430314        5.1709769974       14.2650487656
  H         6.2044153718        9.9423369237       30.8338195037
  H         5.4596650618        9.1276860400       29.3921361861
  C         5.3515546608        7.8590596647       31.2008876243
  H        -6.3452349509        9.0403702718       25.4166625699
  H        -7.4348457328        9.3725881310       26.6909136291
  C        -7.4909340637       10.7036000777       25.0417304923
  C        -2.6508933656       16.3658880389       35.2109983961
  S         4.2928629841        9.0545256509       11.2648216649
  C         3.9596852974        6.1341379328       11.5514807678
  H         5.6092579165        7.9059773706       32.3834059351
  H         4.3980176670        7.3730252750       31.0624345087
  C         6.4783380584        6.9401406925       30.6005253745
  H        -6.8649059442       10.7585560829       24.2633824400
  H        -7.5606142082       11.6806900207       25.4660636019
  C        -8.7316637688       10.0478801267       24.5753798719
  H        -2.5710719269       17.4371152866       35.2044177364
  C        -3.1641196419       15.8333835680       36.4110207537
  H         4.7184326678        6.6719744570       10.9123891511
  H         4.4612381841        5.1463981065       11.8837487105
  C         2.5520428987        6.0457631155       10.9676219433
  H         7.4430805461        7.2821433185       30.6137761103
  H         6.2963219369        6.6768909903       29.6045412560
  C         6.3341163312        5.5788056714       31.3656535984
  H        -9.1273560321       10.4385080103       23.5575550673
  H        -8.5327622898        8.9562696768       24.4039801233
  C        -9.8541920812       10.1273107122       25.6391648919
  S        -3.6604985194       14.2558272127       36.9042810119
  C        -3.3514498129       16.8358951882       37.5715568390
  H         1.9774878616        5.2742668892       11.4600311850
  H         2.0341345101        6.9818271855       10.8802552270
  H         2.6063744240        5.6739650751        9.9278266036
  H         5.3072996504        5.1226339405       31.2540731667
  H         6.5743790361        5.6039387300       32.4709178741
  H         6.8418412387        4.8138424234       30.6403275225
  H        -9.5256115628        9.6187964922       26.5392307695
  H       -10.7564112560        9.6737996306       25.2129600898
  H       -10.2465509969       11.1461572269       25.8924682153
  C        -4.1715614299       14.9160879828       38.5309156377
  N        -4.0127894429       16.2950875722       38.5928778328
  O        -2.9821029845       17.9659472150       37.5070423355
  S        -4.9829596928       13.9422987666       39.7725654273
  C        -4.2421623366       16.9642968067       39.9516909114
  H        -4.3164030041       18.0108057451       39.6827498534
  H        -5.2053748892       16.5889757563       40.3308545584
  C        -3.0256701605       16.8055306443       40.8498592629
  H        -1.9758460815       16.6789232696       40.4771144199
  H        -2.6095427367       17.6682750990       41.4550307758
  H        -3.1891859667       16.0668040723       41.6126197907
