352
i=
  H         2.6855667070        1.1281609828       12.8573381973
  C         3.3537351267        1.9442120485       12.8264454981
  H         4.3547315646        1.5079307939       12.6434268995
  C         3.0200271314        2.8590964571       11.6467284414
  C         3.3931896722        2.5879479978       14.1848208937
  C         4.2825703183        2.9926186566       10.7099247677
  H         2.6571838061        3.7672452722       12.0200276498
  H         2.2736522908        2.2940362886       11.0952841729
  H         2.6835488124        2.0970661037       14.8347355124
  H         3.2000565652        3.5827130479       14.1000212167
  H         4.3301824904        2.3937935408       14.6822426803
  C         4.7004787278        1.6958408169       10.1079316062
  H         4.0579588245        3.7170004394        9.9600561612
  H         5.0442102125        3.6276672221       11.2048423063
  C         5.3166381868        1.7849037508        8.7359682241
  H         3.8605866972        1.0509867190        9.9714473785
  H         5.3862240760        1.1724319600       10.8507175955
  C         6.6181564796        2.5614794346        8.6647553971
  H         4.5518932810        2.0142584994        8.0195728927
  H         5.5207842591        0.7375197149        8.4801918724
  C         7.7822459503        1.8197834471        9.3390435038
  H         6.7487118271        2.5428171363        7.5578052325
  H         6.5062662092        3.5130886964        8.9864765269
  C         9.0633675884        2.6629057576        9.4143341853
  H         8.0548823511        0.7977194781        8.9546428173
  H         7.5394399600        1.5724385764       10.3982978318
  C         8.6925561734        4.0452249006       10.0585099333
  C         9.4825211527        3.3411292019        8.1491766564
  C        10.1916469565        1.9392798032       10.1773433879
  C         8.9133460315        5.1162332447        9.2087574109
  C         8.1684243828        4.4352113794       11.2805226620
  C         9.4626626813        4.7173908789        8.0184923388
  C        10.0996100701        2.7341913801        7.0722956000
  H         9.7227497309        1.4403730619       11.0220589159
  H        10.7847849834        1.2807471510        9.6649443121
  C        11.2191134305        2.8303018340       10.8168452401
  S         8.5716448705        6.6640524968        9.9995489958
  C         8.0602071637        5.8232302541       11.4078261586
  H         7.9992104543        3.7043260866       12.0457544015
  C         9.9868718221        5.3157358026        6.9572972892
  H        10.1116535252        1.6450217654        7.1329040085
  C        10.4424236785        3.3579481873        5.8756789075
  H        10.7036911192        3.3435601548       11.6468160425
  H        11.6517792690        3.6398242658       10.1786037896
  C        12.3961294677        2.1086678020       11.5021787078
  C         7.8014772385        6.5750650723       12.6656771032
  C        10.3820345523        4.7099418435        5.7747203058
  H         9.9833210284        6.3705713725        6.8835240247
  C        10.8735208565        3.0284857748        4.6421165120
  H        13.3606730799        2.3057380433       10.9279697477
  H        12.2666073137        1.1107505020       11.2194480957
  C        12.6219912148        2.0599560364       13.0576012685
  C         7.9381751284        7.9571214791       12.9474308831
  C         7.3356580465        5.8038595102       13.8576527256
  C        10.7455317902        5.4963786059        4.5404605201
  C        11.0209599330        4.1310943265        3.8025429906
  S        11.0536081823        1.5688375577        3.8051942475
  H        13.4076890202        1.3971954243       13.2179648685
  H        13.0105273532        3.0400568018       13.3672930801
  C        11.4383619595        1.5343682536       13.8654106193
  N         8.3240446313        8.9162595637       11.9601216946
  C         7.6719345575        8.6086620161       14.1624827728
  C         7.1766795807        6.4229615088       15.0546937840
  H         7.2721220077        4.7077412401       13.6822286529
  C        12.0116015029        6.3847851885        4.5935034439
  C         9.6340762998        6.2471202866        3.7177681227
  C        11.3651505436        3.7368055748        2.4833935936
  C        11.4063981748        2.4178956088        2.3330615700
  H        11.3378743986        0.4222565469       13.8484749426
  H        10.4604960956        1.7036739717       13.3327334371
  C        11.5802464206        2.1977487948       15.1769297697
  S         8.2754932221       10.4498507608       12.7374163454
  N         7.9018832607        9.9782724764       14.2113822009
  C         7.3275260728        7.8570307578       15.2653086786
  H         6.8224620001        5.8008173288       15.8335312122
  H        11.9211976914        7.2112812779        5.3398036787
  H        12.1052788623        7.0259541392        3.6859388156
  C        13.2724536991        5.5988988387        5.0146979635
  H         9.1816361972        6.9963978704        4.3175803406
  H        10.1423047575        6.7562449170        2.9148920106
  C         8.5739761228        5.5030919833        2.9097796778
  H        11.4982873060        4.5595524881        1.7305576322
  C        11.5799276368        1.7042588380        1.0006954365
  H        11.6728946661        3.1847086354       15.0307079416
  H        10.7240128144        2.1689423471       15.8947185592
  C        12.8435503660        1.7196870661       15.9382780645
  C         7.0599885986        8.4981384074       16.5168645696
  H        12.9954119716        5.1047901246        5.9184728913
  H        13.5376011348        4.9422670841        4.2050159892
  C        14.5611831067        6.4115759806        5.3030071181
  H         7.9945556042        4.8037156532        3.5265763222
  H         9.1817619085        5.0136282802        2.1507087329
  C         7.5298368016        6.4687228762        2.3618739471
  C        11.5805493300        0.3188735610        0.9235763851
  C        11.6575993803        2.3969182282       -0.2664884272
  H        13.7150330546        1.8753513577       15.4126438677
  H        12.6313483313        0.6647584175       16.1131852082
  C        12.9807508255        2.4415031915       17.2771669943
  H         7.3767672469        9.5162731096       16.5767930306
  C         6.6494830539        8.0620664355       17.7569520899
  H        14.3262568887        6.9704902611        6.1876082734
  H        14.7802207886        6.9435193683        4.4109428837
  C        15.7948581285        5.5382475949        5.5165806093
  H         7.0606479882        6.8868909111        3.2755239731
  H         7.9933253720        7.1959613158        1.7095369899
  C         6.3080614806        5.8109404618        1.6477797209
  N        11.4950068859       -0.6295384239        2.0019675133
  C        11.8340869156       -0.3565156166       -0.2800443924
  C        11.9986925593        1.7483221543       -1.4284006489
  H        11.4373825954        3.4189213969       -0.2606184376
  H        13.5995794896        3.3402314353       17.1393522440
  H        13.4372532101        1.7030168905       17.9963035266
  H        12.0730247747        2.8062991381       17.7195082975
  S         6.1321922626        6.4659474705       18.2269109139
  C         6.5575347471        9.0751372516       18.8736563450
  H        15.5467957026        4.4956243166        5.6634645971
  H        16.4659418402        5.5077012312        4.6434436868
  C        16.3841533199        5.9719530924        6.8227128455
  H         5.7399386055        5.0136595376        2.2276843022
  H         6.8522961701        5.1877394890        0.8831063855
  C         5.3696272209        6.8458101245        1.0247820505
  S        11.8004430517       -2.1009879043        1.4347921645
  N        11.9818575142       -1.7406716487       -0.1125105082
  C        12.1609899120        0.2725783601       -1.4909417548
  H        12.1223770132        2.4047279972       -2.2927036292
  C         5.9010954112        7.0998392602       19.8113703831
  N         6.0820839045        8.4595370677       19.9807405770
  O         6.8745512315       10.2512239742       18.7443721666
  H        16.5182828057        7.0193091840        6.7270211162
  H        15.7795557806        5.8889151698        7.7025973454
  C        17.7579333359        5.2937561373        7.1113521271
  H         5.8702623289        7.5876856047        0.4423117126
  H         4.7000047536        6.2941430564        0.4170729285
  C         4.4798759816        7.5765092890        2.0397104259
  C        12.6137421233       -0.4724732675       -2.6305251646
  S         5.4441433255        6.1439580507       21.2386815064
  C         6.1605928303        9.0922455415       21.2940229769
  H        18.0704141296        5.6079094939        8.0992311053
  H        17.7486989610        4.2057798947        6.9785335456
  C        18.8475467503        5.8956919542        6.1510343338
  H         4.8182930699        7.3243097471        3.0321018879
  H         3.4380770875        7.2470845422        2.0364108642
  C         4.5526543769        9.0989650163        2.0086279564
  H        12.3064892984       -1.5302720390       -2.5512385230
  C        13.2231275496       -0.1741506544       -3.8293835734
  H         5.2451553208        8.8317938371       21.9465292975
  H         5.9783431811       10.1451768346       21.1454082225
  C         7.4524819013        8.9211278108       22.0774118246
  H        18.5919012662        6.9821079230        5.9843067810
  H        18.9406912838        5.4930850199        5.1311620062
  C        20.1743276704        5.7953206674        6.7441484413
  H         4.4442791668        9.4815081532        3.0307518959
  H         5.5891136649        9.3929306581        1.7709458439
  C         3.4364122651        9.8396308502        1.1053472109
  S        13.7126649980        1.4640403004       -4.2423478492
  C        13.5140522671       -1.2513658393       -4.7369197744
  H         7.3151811781        8.1468420424       22.8116154529
  H         7.6871751336        9.8956133205       22.4830337548
  H         8.3385495638        8.6249689620       21.4980254435
  H        20.3882953819        4.9755489847        7.4766662126
  H        20.9465277169        5.7273989207        6.0227374012
  H        20.4216026008        6.6848244849        7.3441195453
  H         2.4357146870        9.3918471730        1.1267217837
  H         3.3305481254       10.8324750016        1.5138840209
  H         3.7353562712       10.0496806672        0.0434000984
  C        14.3446685802        0.6197504070       -5.7273694576
  N        14.0641277256       -0.7247179347       -5.8513149108
  O        13.2289788013       -2.4589255883       -4.5979757039
  S        14.5767977948        1.4183058406       -7.3291154756
  C        14.0540744612       -1.5176349095       -7.1299358823
  H        14.4669025818       -2.5187313106       -6.8709816494
  H        14.7383464284       -1.0491102307       -7.8271031238
  C        12.7124554171       -1.6217343769       -7.8587357567
  H        11.8663088582       -2.0865330330       -7.2793736308
  H        12.8773273113       -2.3113323047       -8.6258209625
  H        12.3808692853       -0.6514099621       -8.1784111563
  H        -3.4613351849       14.7010478889       16.4695431293
  C        -2.9659396238       13.7155600869       16.4564493102
  H        -3.6450906903       12.9648781168       16.8264245507
  C        -1.7533878353       13.7334482536       17.3369337855
  C        -2.6085703637       13.2289440231       15.0342968688
  C        -1.8878163585       13.9024480571       18.8453568399
  H        -1.4737630111       12.7205042648       17.1945636858
  H        -0.8789319321       14.2870751733       16.9113917828
  H        -2.5174243619       12.1556311553       14.9885384962
  H        -3.2710208697       13.5371239506       14.2316515448
  H        -1.6332262637       13.4651153924       14.6107701093
  C        -2.6695670256       12.8291230065       19.5682494580
  H        -2.2105780823       14.9648648870       19.0292137502
  H        -0.9323220579       13.8885295633       19.2497084533
  C        -2.5985137380       13.1020162447       21.1196713264
  H        -3.7082937246       12.9111730256       19.1479220239
  H        -2.2395463523       11.9227936630       19.2770847812
  C        -1.3782384821       12.5389670811       21.8591604464
  H        -3.5615652247       12.8294992440       21.5919777887
  H        -2.5625880935       14.2037321383       21.2146603587
  C        -0.3909159561       13.5473318816       22.4341619522
  H        -1.7698914174       11.9488390214       22.6502706770
  H        -0.8523487382       11.7891933502       21.2686803885
  C         0.8290180596       12.9553181733       23.2410975379
  H         0.0021640137       14.0511122871       21.5599696794
  H        -0.8790818036       14.3644742438       22.9493317491
  C         1.3001394164       11.6498064241       22.5933712568
  C         0.4017263357       12.2405175157       24.5192287138
  C         1.9998693516       13.9809522194       23.4148226533
  C         1.0833442240       10.5693945959       23.4092430821
  C         1.8773134958       11.2797724841       21.4253950469
  C         0.4699721015       10.8897562484       24.6327347514
  C        -0.1808052005       12.7828160905       25.6733709957
  H         2.1206585945       14.4412033153       22.4299045175
  H         1.5634270680       14.6912400409       24.1333804731
  C         3.2032197557       13.3677647353       24.0635763690
  S         1.4899079963        9.0371375266       22.6271871379
  C         2.0182980792        9.9250178866       21.2108438352
  H         2.2263850042       12.0770687662       20.7363014139
  C         0.0780311656       10.2369263541       25.6775923687
  H        -0.3496190699       13.8446051107       25.5695307415
  C        -0.4939601321       12.1518921225       26.8404037605
  H         3.5955555133       12.7321974703       23.3041211342
  H         2.9801569036       12.6839832169       24.9429428397
  C         4.3921363494       14.2281008655       24.5796532482
  C         2.5001894904        9.2521088277       19.9704201943
  C        -0.4335313807       10.8323901380       26.8966007828
  H         0.1344012313        9.1568199855       25.6820103644
  C        -0.8452500951       12.4636348318       28.1368341180
  H         5.1879282073       13.6078400388       25.1429404096
  H         3.9948274832       14.9317701248       25.3226513476
  C         5.0773446071       14.9140998436       23.3814798346
  C         2.3994441562        7.8926006554       19.6174416232
  C         3.1479821070       10.1165178745       18.9774487328
  C        -0.8788431008       10.0942610521       28.1612290108
  C        -0.9296052225       11.3584993801       28.9532468816
  S        -1.2023701430       14.0185780101       28.8512665952
  H         5.9181147938       15.5709603347       23.6160592259
  H         4.3133165719       15.5170056672       22.8525028589
  C         5.8095873195       13.8483597822       22.5341611990
  N         1.9724626080        6.8586826578       20.4363412983
  C         2.8124298418        7.3893918313       18.3655815346
  C         3.5678932075        9.5722756823       17.7477364822
  H         3.1852141280       11.1582946716       19.0950315387
  C         0.1772806711        9.0926758557       28.6382222706
  C        -2.2193356793        9.3488090713       27.9495585600
  C        -1.3198837404       11.7795386735       30.2513616329
  C        -1.3663953272       13.1551323002       30.3867124799
  H         6.8352661797       14.2334274010       22.6552868173
  H         5.7502726680       12.7953392510       22.9020842984
  C         5.4432024208       13.9429884976       20.9979246820
  S         2.0555007395        5.4322792464       19.6236372800
  N         2.5212317028        5.9989131253       18.1931493209
  C         3.2706186632        8.2092390862       17.3575779924
  H         3.9480494628       10.2786356154       16.9917400109
  H         0.2259098950        8.3399467320       27.8608259145
  H        -0.2080082943        8.5324430768       29.4907456367
  C         1.5335861552        9.6263460536       28.9889407780
  H        -1.8837066685        8.5570572595       27.3296476592
  H        -2.5022399284        8.8865304720       28.9186871224
  C        -3.3857389802       10.1796829293       27.4466347121
  H        -1.5602246671       11.0080195899       30.9904753866
  C        -1.6980551161       13.8520499663       31.7032353346
  H         5.3796349707       14.9981437289       20.7263138179
  H         4.3598809939       13.6135344022       20.9451148800
  C         6.4603955725       13.0400216375       20.2142404890
  C         3.5756049771        7.6392519766       16.1239275374
  H         1.9965337740       10.2712585962       28.2017391937
  H         1.4674839912       10.3582252665       29.7803308238
  C         2.5378190967        8.6069745504       29.5053632028
  H        -3.1006344305       10.7257064092       26.5475519893
  H        -3.6586508807       10.8940795281       28.2313180644
  C        -4.6701465947        9.4310421883       27.0710915509
  C        -1.6957085299       15.2362572171       31.8784562991
  C        -1.8177613816       13.0488582893       32.9328268689
  H         7.0118168452       12.3374097315       20.8538357857
  H         5.9571210773       12.3602422534       19.5041943187
  C         7.6513008700       13.7415822714       19.5394649740
  H         3.5302607898        6.5437486208       16.0758256338
  C         3.9234291238        8.1914119569       14.8809322483
  H         2.7539377709        7.8234072574       28.7921211588
  H         2.1058135702        8.0730688522       30.3914915956
  C         3.8169494764        9.3342228052       29.9718368124
  H        -4.3830569878        8.6669319114       26.2948413378
  H        -5.0557973380        8.8300382760       27.9419202107
  C        -5.6115261773       10.4686587144       26.4900406571
  N        -1.4314623142       16.2108870355       30.9106987888
  C        -2.1249941714       15.7623840590       33.0522279572
  C        -2.0614040150       13.6588033033       34.1249518914
  H        -1.7383744822       11.9563623417       32.8740530083
  H         7.2289747154       14.5663599104       18.9582746318
  H         8.3704084437       14.1606390321       20.2075310045
  H         8.2126412540       13.0483280681       18.9287443933
  S         4.1108778633        9.8203316645       14.5869850653
  C         4.0400565492        7.2581026364       13.7660858756
  H         4.5520218442        9.2289216128       29.1663282653
  H         3.5995952162       10.3528968873       30.0569221796
  C         4.3614902856        8.7485274965       31.3130955763
  H        -5.1279153083       10.9993953601       25.7151190046
  H        -6.0180877428       11.0875181560       27.2170468925
  C        -6.8028033769        9.6942287745       25.9623208095
  S        -1.6372077894       17.6594981723       31.5449136752
  N        -2.1157125342       17.1968459715       33.0086838986
  C        -2.2717757279       15.0743859055       34.2669267516
  H        -2.2963659976       12.9541982739       34.9457312626
  C         4.4424670331        9.3089032892       12.9272097425
  N         4.4359934686        7.9542200834       12.6578720357
  O         4.0853283785        6.0744755765       13.8739333457
  H         3.7197155416        9.1483621165       32.1130281302
  H         5.3907180300        9.0638302826       31.3849553648
  C         4.4649475817        7.1970503827       31.2458069944
  H        -6.4972594254        8.9033761118       25.2213332143
  H        -7.2111113994        9.1393502914       26.8352725560
  C        -7.7437566606       10.6534793808       25.2469725684
  C        -2.5957508602       15.7963073320       35.4545479377
  S         4.7641119802       10.3830037332       11.5354242413
  C         4.5565864874        7.4226761437       11.3618491351
  H         3.6753935846        6.8837313851       31.9176283415
  H         4.3497204436        6.8264768540       30.2836835981
  C         5.7978097424        6.6335949351       31.6627696469
  H        -7.1982037982       11.0684600855       24.3371055957
  H        -7.8287392524       11.4762708363       25.8836768592
  C        -8.9991558586       10.0286328456       24.9312133570
  H        -2.5507182988       16.8427293729       35.3612305440
  C        -3.0698239189       15.5608915891       36.7035177061
  H         5.2013669559        8.0641913473       10.7722033381
  H         5.0888677152        6.4705562959       11.4493740250
  C         3.1991330887        7.2668142616       10.6144227557
  H         5.6612893227        5.6136444571       32.0475335850
  H         6.1756731738        7.2944939078       32.3909188518
  C         6.7647384489        6.5246172158       30.4444055401
  H        -9.3168926074       10.6275601705       24.0362239310
  H        -8.9190501654        8.9592172472       24.6825935650
  C        -9.9719293650       10.0905251570       26.1139513115
  S        -3.7128845579       13.9975448492       37.1942384273
  C        -3.1650916449       16.6240940753       37.7441057342
  H         2.3676146048        7.6169010493       11.1760384912
  H         3.2128776440        7.7371355609        9.6374569835
  H         2.9985311632        6.1754369931       10.5789559327
  H         7.7532738373        6.8710731523       30.6821060080
  H         6.5233006938        7.3901439204       29.7862376362
  H         6.8395831729        5.6731918961       29.8354085522
  H       -10.3953757866       11.0339647018       25.8804789274
  H        -9.4045239437       10.1933567714       26.9698640623
  H       -10.6365444373        9.2020409777       26.3070236726
  C        -4.1546890975       14.8255878860       38.6541236678
  N        -3.8808731301       16.1845142109       38.7260459042
  O        -2.6166886114       17.7093907295       37.6027278677
  S        -5.0857528462       14.3056045404       40.0219624381
  C        -3.9879558288       17.1186683563       39.8984222224
  H        -4.0685193287       18.1112671910       39.5372636484
  H        -4.9292709085       16.8688510901       40.4875186059
  C        -2.6444401000       17.0984132502       40.7692460879
  H        -1.6955193289       16.9040155741       40.2413602120
  H        -2.5618590486       18.0900915385       41.2725036295
  H        -2.7952603727       16.2256461703       41.4457289711
