352
i=
  H         2.6026285170        3.0980674105       11.9892268819
  C         3.2927216637        2.2945912390       12.2251448753
  H         2.6774414840        1.4286247090       12.0587447616
  C         4.4905056526        2.2180779108       11.3028214315
  C         3.6769116295        2.4393257512       13.6741508900
  C         4.0189262282        1.8063563967        9.9108701760
  H         5.1722624958        1.5047677124       11.8099909419
  H         4.9787857299        3.1486809845       11.3717463986
  H         4.4389067242        3.2568421012       13.8052276552
  H         4.1166419818        1.4497326908       13.9648352564
  H         2.7328517375        2.5923945406       14.2216268884
  C         4.8887083718        0.8540542555        9.2074697590
  H         2.9538285118        1.5171315637        9.9813948674
  H         3.9506813343        2.6690607505        9.2379689493
  C         5.7529556454        1.4505285697        8.1157530783
  H         4.2592872043        0.0697227062        8.8225234482
  H         5.5185159646        0.3867692628        9.9368661834
  C         6.8833665914        2.3632909528        8.5274350071
  H         5.1629756119        2.0757571015        7.4419306732
  H         6.1721264063        0.6912692977        7.5547565408
  C         8.2310893484        1.8733376241        9.1946283407
  H         7.0190065330        2.9799115479        7.6514134411
  H         6.2790676472        3.1059802912        9.1632233007
  C         9.4671855234        2.8118774904        9.2168819797
  H         8.5741535679        0.9392213556        8.7279737777
  H         8.0036105513        1.7805858869       10.2226316616
  C         8.9481541641        4.1216752969        9.8275398718
  C         9.6798906862        3.4940650187        7.9087505247
  C        10.6669820184        2.2868089388       10.0827612248
  C         9.0581576582        5.1933032370        9.0641644183
  C         8.4506077765        4.5341635318       11.1253725189
  C         9.4691474709        4.8017516287        7.7864808603
  C        10.0711560233        2.8345761666        6.7763288281
  H        10.4050111124        2.0833540584       11.1136925782
  H        11.1395331975        1.3165839849        9.7727896219
  C        11.8924758031        3.2062765029       10.0990002222
  S         8.5050637596        6.6848991242        9.7586532341
  C         8.1478408169        5.8565817856       11.2273793728
  H         8.3196776691        3.7832037159       11.8821254666
  C         9.7626340406        5.3725428358        6.6093288407
  H        10.2089536995        1.8278469226        6.8363731439
  C        10.3679191565        3.4053064262        5.5686894769
  H        11.7124337675        4.2410586916       10.2924204695
  H        12.4054413595        3.2825635717        9.1483344951
  C        12.8136648911        2.6352709951       11.1720821465
  C         7.6461558471        6.5653974629       12.4575606984
  C        10.2608101672        4.7443631687        5.4764949359
  H         9.7417875905        6.4577898124        6.6124663231
  C        10.7385789568        3.0191222890        4.2764330728
  H        13.7647080148        3.0640683044       10.8695428295
  H        12.8730998140        1.5310517086       11.0795370307
  C        12.4837702478        3.0699825892       12.6194344954
  C         7.7030714053        7.9869322509       12.6961606952
  C         7.0302057145        5.7971103445       13.5197333558
  C        10.7716376715        5.4287807563        4.1703637999
  C        11.0069082442        4.1112042746        3.4622636803
  S        11.1248118598        1.4733748034        3.4442194742
  H        12.8425414664        4.0661187108       12.7126173722
  H        11.3644144680        3.1323702297       12.6210897965
  C        12.8993480449        1.9767461208       13.6982227852
  N         8.1128793048        8.9482112820       11.7640282843
  C         7.3036712273        8.5454582014       13.8915314225
  C         6.8548285270        6.2945875936       14.8130172462
  H         6.7541854046        4.7292499038       13.2944447182
  C        12.1773059197        6.1709742466        4.3478305178
  C         9.6180116631        6.2853109306        3.5916413868
  C        11.3413515798        3.6861836737        2.1434397262
  C        11.5628267496        2.3460677523        2.0489483517
  H        14.0189242276        1.7964232422       13.8235971865
  H        12.2730426194        1.0801737774       13.4479114320
  C        12.2884977520        2.3918369346       15.0588906243
  S         7.9512619705       10.4586517307       12.4243947668
  N         7.4099905313        9.9493102450       13.8989354263
  C         6.9598022593        7.7759758814       15.0682437889
  H         6.1835243984        5.7484695042       15.4938418664
  H        11.9653434212        6.9163653705        5.1230167879
  H        12.4605524374        6.7329644841        3.4359544160
  C        13.5089879609        5.3244074295        4.7331602141
  H         9.3833583921        7.0223862274        4.3355151676
  H         9.8968364115        6.9146872711        2.7572390576
  C         8.3860940547        5.5115098769        3.1505731221
  H        11.4068006252        4.4024050720        1.3694028206
  C        11.8859587682        1.5763919830        0.7664460493
  H        11.7857556570        3.3183433369       14.8160153296
  H        11.5081346818        1.6381544278       15.4280864770
  C        13.4030073104        2.5742280581       16.0761019508
  C         6.7096079404        8.4805216089       16.2537421641
  H        13.4682539876        4.7702880838        5.6996650132
  H        13.7936792934        4.6440722257        3.9520348575
  C        14.8205324351        6.2104543709        4.7643417107
  H         8.1064108071        4.7901780445        3.9083887369
  H         8.6675284480        4.8133723176        2.3768776317
  C         7.1590450847        6.4597699872        2.8796410251
  C        12.0290866995        0.1648733078        0.5757153526
  C        12.0662245249        2.3729586020       -0.4424491065
  H        14.0925819990        3.3779086572       15.8725833967
  H        13.9218417695        1.6632677981       16.2763830037
  C        12.7375055618        2.9845665230       17.4374011156
  H         6.9539635271        9.5416324625       16.1532590034
  C         6.3513497367        8.0982324366       17.5663872556
  H        14.8014541106        7.0292554199        5.4287160421
  H        14.9353905931        6.6510682506        3.8030819031
  C        16.0053101946        5.2889195174        5.1383725363
  H         6.8459200260        6.9224217670        3.7809117634
  H         7.4050094953        7.2998877991        2.2176044758
  C         5.8511247112        5.9218449846        2.3564404830
  N        11.7956442007       -0.7775992601        1.6201720113
  C        12.4089777399       -0.4989283666       -0.5634105857
  C        12.3722600497        1.7084670944       -1.6354677474
  H        11.7525457096        3.3809257128       -0.5040074848
  H        13.3007866590        3.0882825654       18.3274402532
  H        11.9805719435        2.2442683533       17.6759807443
  H        12.2173401475        3.9283402893       17.4614053893
  S         6.0964092254        6.5511535704       18.1094573241
  C         6.3081371196        9.2122070395       18.5902346603
  H        15.9010253381        4.2814814730        4.6852014226
  H        16.9338595069        5.7683049905        4.8870594858
  C        16.0792693638        4.9900080818        6.6742648054
  H         5.4385257548        5.1165041345        3.0096365573
  H         6.0654227335        5.4214952826        1.4052943847
  C         4.7704935550        6.9775502742        2.2964360855
  S        11.9802595260       -2.2820978377        1.0620292928
  N        12.4817239997       -1.8940500624       -0.4393611754
  C        12.5735594493        0.2078381852       -1.7471149820
  H        12.5058436561        2.2958763608       -2.5396177693
  C         6.1218335470        7.2376989869       19.7220930721
  N         6.2310020348        8.5693394389       19.7627795932
  O         6.3960273791       10.4558665292       18.4524978509
  H        15.6765776174        5.8153467421        7.1907782032
  H        15.4941564781        4.1518011391        6.9656595918
  C        17.4536885667        4.6638506762        7.2997162503
  H         3.8375865602        6.4321665923        2.5820315755
  H         4.9355778986        7.7849287851        2.9764818534
  C         4.8168496696        7.6769242965        0.9169433484
  C        12.8430952915       -0.4867588835       -2.8882944526
  S         5.5324716891        6.5273121739       21.2160682032
  C         6.3889945931        9.3729032387       21.0017427146
  H        17.1875386776        4.6567333352        8.3766642073
  H        17.8529253749        3.7510506353        6.8360995325
  C        18.4149740074        5.8120912016        7.1084911827
  H         4.5369809673        6.9671876612        0.0961475409
  H         5.7455804369        8.1762879147        0.5575504009
  C         3.6977842225        8.6250851114        0.8644050040
  H        12.5935618157       -1.5881120532       -2.7657829774
  C        13.3680522423       -0.0881785053       -4.0643041701
  H         5.5489734566        9.0708702029       21.6083025552
  H         6.2992406372       10.4222529347       20.8081856844
  C         7.6887249350        9.0186204208       21.6902359474
  H        18.8038367622        6.0957389426        8.0984862872
  H        17.8437876603        6.7414772041        6.8255699093
  C        19.6521295027        5.5207400620        6.1810178142
  H         3.2746816438        8.5099284602       -0.1859419847
  H         2.9868654033        8.3841984939        1.6095211081
  C         4.2779128182       10.0712339198        0.8084452512
  S        13.9517346483        1.4865300319       -4.5760503665
  C        13.4623239537       -1.1651181243       -5.1107839921
  H         7.6358811701        8.1451110997       22.3392173044
  H         7.9200660222        9.7675246217       22.4612565859
  H         8.5339610877        8.9233074158       21.0755931254
  H        19.3487575975        5.5976654512        5.1046861888
  H        20.4490995556        6.2121249729        6.5016958780
  H        20.0511841083        4.5157004558        6.3638000359
  H         5.0503698443       10.2628424988       -0.0170148840
  H         3.4987345862       10.7663455574        0.7511742800
  H         4.7702930061       10.1724366231        1.7504088282
  C        14.2320651974        0.7459305456       -6.1142615256
  N        14.0531572731       -0.6181843218       -6.1666082138
  O        12.9480476161       -2.2696564808       -5.0801681291
  S        14.8367530728        1.6443166455       -7.5979569088
  C        14.1104653035       -1.4295868943       -7.4296413087
  H        14.1419827251       -2.4933362941       -7.1779944981
  H        15.0707853880       -1.2704085795       -8.0829801413
  C        12.7958611388       -1.1731102677       -8.1493133700
  H        11.9765936988       -1.6751554264       -7.6252615317
  H        12.8490911534       -1.4199438998       -9.1888070887
  H        12.4747698768       -0.1762124682       -8.1262886604
  H        -1.7290667179       14.8719050360       14.5653858494
  C        -2.2268273688       14.3920912966       15.4163737726
  H        -3.1790973438       14.9552982053       15.5613091012
  C        -1.4205500958       14.1908078332       16.7209198583
  C        -2.8223971451       13.0351136475       14.8294140873
  C        -2.2165456115       13.7318801256       17.9635384267
  H        -0.7215175647       13.4238387769       16.6067733766
  H        -0.8325227577       15.1251908018       16.9686804263
  H        -3.1371520818       12.9261701744       13.7691275134
  H        -1.9778090901       12.3915663685       14.8531908313
  H        -3.6778860516       12.6820098198       15.4263012191
  C        -1.3006499837       13.5780662298       19.1397704696
  H        -2.7380360195       12.8593454424       17.8671930685
  H        -3.0698573986       14.4150744859       18.1608148079
  C        -2.1233592727       13.5066284471       20.4358237956
  H        -0.8091395966       12.7009639336       19.0572389984
  H        -0.5463798766       14.4301455103       19.2195346625
  C        -1.3090025514       12.9651911884       21.7342404943
  H        -3.0146094529       12.8821098849       20.3130619683
  H        -2.5810496154       14.4809389012       20.6773109869
  C        -0.1195722113       13.9143359189       21.9669110032
  H        -1.8330649851       12.8943298944       22.6518467455
  H        -1.0385769929       11.9500409147       21.5295850400
  C         1.0649816460       13.3566349307       22.7083332011
  H         0.1984834580       14.4618420883       21.0489863920
  H        -0.4367363464       14.7663313587       22.5352163089
  C         1.4480557813       12.0161054573       22.0782318235
  C         0.6764362543       12.6788234518       23.9713857600
  C         2.3127997255       14.3200659132       22.9892882904
  C         1.2896243767       10.9206714638       22.9017227544
  C         2.0082915217       11.6354256252       20.8138671941
  C         0.7382037476       11.3566576066       24.0816926571
  C         0.2436441349       13.2975864143       25.1159420886
  H         2.4523658505       15.0772644313       22.1879392777
  H         2.0324876179       14.8760863242       23.8645899339
  C         3.5500486502       13.6142342301       23.4451152256
  S         1.6138398085        9.4732293027       22.0615223722
  C         2.3346027902       10.2999532009       20.7306395654
  H         2.0454665638       12.3132469717       20.0223107224
  C         0.3747111322       10.7380266369       25.2423800476
  H         0.1831957765       14.3262249193       25.0939153023
  C        -0.0856325127       12.7184089107       26.2782789080
  H         3.8694571860       12.8161984968       22.8156703504
  H         3.2059427300       13.0134756013       24.3008918426
  C         4.7835321788       14.4527169425       23.9420369698
  C         2.7034367948        9.6964629777       19.4503921171
  C        -0.0245964320       11.4126887333       26.3910966063
  H         0.5180254709        9.6599372825       25.2590321719
  C        -0.4464443922       13.1377937653       27.5973477163
  H         5.3674087458       13.8167804232       24.5902821228
  H         4.6181934981       15.3965863157       24.4515267049
  C         5.7030533885       14.8905444589       22.7756610203
  C         2.5925234572        8.3029630644       19.1784059496
  C         3.0783178979       10.5124012027       18.3343055298
  C        -0.2219470339       10.7424042266       27.6902651690
  C        -0.5024490758       12.0760333338       28.4354014011
  S        -0.7581016393       14.6648429848       28.3558079340
  H         6.5448438139       15.4843344725       22.9897656107
  H         5.1174962428       15.6278819706       22.1761588015
  C         6.1978570370       13.6409487355       21.9430636963
  N         2.1923825797        7.3533032729       20.1586593265
  C         2.8328663188        7.7026507719       17.9868001760
  C         3.2639780566        9.9388095382       17.0663658434
  H         3.4223593492       11.5452267798       18.5270794372
  C         1.0365307095        9.9909299614       28.1148719953
  C        -1.4401947644        9.8232377881       27.7206073645
  C        -0.8890169498       12.4344037451       29.7342153767
  C        -0.9968310066       13.8400736692       29.8885740669
  H         7.2992344603       13.6232832207       22.0892819959
  H         5.9174521736       12.7353600359       22.4481629720
  C         5.8339436636       13.6326497451       20.3913968539
  S         2.2379091972        5.8970541712       19.4918951682
  N         2.7014101492        6.3189121818       18.0000612570
  C         3.1478289400        8.4389747227       16.8378804136
  H         3.7166218212       10.4797851968       16.2796752266
  H         1.3922026241        9.2621396469       27.3215268329
  H         0.7276932205        9.3205885580       28.9673124039
  C         2.2271617048       10.7656700298       28.7481580389
  H        -1.3986510906        9.1743172501       26.8538986476
  H        -1.6153114858        9.1602580316       28.6502402530
  C        -2.7473041328       10.5233723359       27.5171677115
  H        -0.9199748932       11.6664434116       30.4571541095
  C        -1.3672270507       14.5497427483       31.1588954708
  H         4.9763629701       14.2621131487       20.1264806725
  H         5.4670449318       12.6213317157       20.2207914503
  C         7.1056393539       13.8908700515       19.5707636722
  C         3.3737538815        7.6711750232       15.6151895921
  H         2.8050116503       11.2018938234       27.9700759686
  H         1.8205071738       11.6097554404       29.2898053556
  C         3.1208540401        9.9005742631       29.6516985600
  H        -2.6481038823       10.9967619621       26.5266968963
  H        -3.0177156752       11.1955306468       28.3278775831
  C        -3.8373428499        9.4490903037       27.4761411776
  C        -1.3681535003       15.9341889173       31.3593476460
  C        -1.7361054954       13.6756279401       32.3684998284
  H         7.5311003967       14.8487717886       19.8292030895
  H         7.7401036989       13.0378039330       19.8266609968
  C         6.8124609899       14.0488741508       18.1052353473
  H         3.3785303878        6.6170071869       15.5678628085
  C         3.7144700526        7.9836247331       14.2864539358
  H         3.4814601758        9.1020493562       29.0169940565
  H         2.4338280774        9.5752820734       30.4378584703
  C         4.2469811533       10.6367861733       30.3624352731
  H        -3.5796361042        8.7638837458       26.6929467832
  H        -3.9387605321        8.7584758938       28.3028268576
  C        -5.1111772854       10.0120551395       26.9720488828
  N        -1.1225855266       16.9592860302       30.3782174718
  C        -1.7079347392       16.4911863528       32.6011832484
  C        -2.0873069879       14.2283558634       33.5966633334
  H        -1.7784192868       12.6419775365       32.3833387222
  H         7.6460410874       13.6159459735       17.5437980240
  H         5.8957759039       13.6142341166       17.7837372082
  H         6.7006016162       15.1030469998       17.8750380190
  S         4.2466594707        9.5574973455       13.7236144167
  C         3.7235987164        6.9576660225       13.2176630218
  H         4.3628404933       11.6327046164       30.0275306288
  H         4.0162604757       10.7140765303       31.4236549081
  C         5.5088470560        9.8969541295       29.9766063892
  H        -5.2271361868       11.0136249830       27.3456470064
  H        -5.9494111973        9.3922372849       27.3977014641
  C        -5.3331980902       10.1367974124       25.4176006689
  S        -1.3139749409       18.4107132283       31.0389225683
  N        -1.7354066352       17.9223177740       32.5239900529
  C        -2.0387288900       15.7556762959       33.7884490418
  H        -2.2445293041       13.5240469099       34.4273078288
  C         4.3323828166        8.8456184857       12.0822237773
  N         4.1748224841        7.5112727246       12.0397917887
  O         3.5316237267        5.7904325786       13.4361146751
  H         6.3692693633       10.4289349932       30.2678156453
  H         5.5586048240        9.7669124108       28.9220489527
  C         5.4777531583        8.4074195666       30.6000240000
  H        -4.4546184254       10.5786270401       24.9054691062
  H        -5.3632061322        9.1024498260       24.9592333348
  C        -6.5323238212       11.0367098422       25.0298469186
  C        -2.3876967146       16.4303009498       34.9515554548
  S         4.7130969116        9.7502700635       10.5691825891
  C         4.1930187507        6.7500558289       10.8145596196
  H         5.1258436708        8.5013464038       31.6410150173
  H         4.7677811942        7.8496903956       29.9281437290
  C         6.8609172245        7.6342621683       30.5611756687
  H        -6.6328217986       11.4161278130       23.9792654748
  H        -6.5444810528       11.9329905385       25.6850123605
  C        -7.8027349793       10.2969962900       25.2560783705
  H        -2.1445838208       17.4469756914       34.9012803690
  C        -2.9819528253       16.0549792382       36.1276430725
  H         4.9026637979        7.1524357025       10.1777453629
  H         4.5757771806        5.7264198902       11.1324771046
  C         2.7920640926        6.7484509744       10.1849401944
  H         7.6803390868        8.3515659935       30.6808846437
  H         6.8372486418        7.3978198512       29.5271265942
  C         6.9078262936        6.4166580444       31.5212080987
  H        -8.3508771041       10.2034544538       24.2721812217
  H        -7.4950830826        9.2851154718       25.5497207489
  C        -8.7498313336       10.7947765318       26.3154012113
  S        -3.4993027456       14.5267729142       36.6780902754
  C        -3.1034325970       17.1508796169       37.1204140336
  H         1.9777573721        6.2004731724       10.7766349184
  H         2.5071556784        7.7890591529        9.8741868321
  H         2.8828360395        6.1789756953        9.2470602321
  H         7.7535105505        5.7107601646       31.4005223240
  H         5.9776977283        5.8486727756       31.3272588157
  H         7.0356559402        6.9302571034       32.5140068433
  H        -9.0400042526       11.7849123854       26.0915116911
  H        -8.1067432975       10.9932733865       27.1932528665
  H        -9.5146443090       10.0393179213       26.4489143535
  C        -3.6797459091       15.2689710597       38.2155786897
  N        -3.5799980415       16.6598563459       38.2537379222
  O        -2.7973037645       18.2672064203       36.8597380906
  S        -4.3919528976       14.4499305046       39.5449901136
  C        -3.7087433110       17.4625752843       39.4767935675
  H        -3.9582177406       18.4291238184       39.1038587132
  H        -4.5406946455       17.1149610442       40.0951441205
  C        -2.4006355403       17.5832068709       40.2093930224
  H        -2.5239247217       18.4678458703       40.8874210152
  H        -2.1284227930       16.6555326266       40.8178676941
  H        -1.5539189809       17.6625521513       39.6003625906
