352
i=
  H         2.8068340485        3.3533510461       12.8758755777
  C         3.3405350802        2.4942168397       13.2001506186
  H         2.6836879875        1.7299598118       12.7535480958
  C         4.7788104058        2.4773811741       12.6004628453
  C         3.3330554446        2.2019149023       14.7351230759
  C         4.7097343494        2.3747179877       11.1068383840
  H         5.3607804282        1.6258888135       13.0376402716
  H         5.3176699395        3.3852598018       12.8525315195
  H         3.8029407901        3.0047430341       15.2327539854
  H         3.9327015842        1.3707811182       14.9993406200
  H         2.3196066270        2.2210905868       15.0333199866
  C         5.3982825444        1.2179965115       10.4887306898
  H         3.6973372669        2.5102518456       10.8583408699
  H         5.1237161659        3.2375816067       10.6595526592
  C         5.7134715477        1.2125903005        8.9898765797
  H         4.9289838522        0.2371335612       10.6563120209
  H         6.2837915360        1.1927289537       11.1432358498
  C         6.9288006782        2.1108674740        8.6977741911
  H         4.8533417682        1.5502132428        8.4557971565
  H         5.7886620580        0.1653107189        8.6421043436
  C         8.2339593276        1.3582261304        9.1968506012
  H         7.1462117157        2.3052952121        7.6510828828
  H         6.7268721458        3.0312777079        9.2489433512
  C         9.4478565556        2.3160562399        9.4316741540
  H         8.4833585100        0.5864153920        8.4692068255
  H         8.1555227405        0.8014055809       10.1169518516
  C         9.1032105692        3.6719817511       10.0165002445
  C         9.9048684144        2.9743012238        8.1588182541
  C        10.5151673946        1.6406747509       10.2668984221
  C         9.4251346022        4.7846217808        9.1873085234
  C         8.4697000547        4.1754299983       11.2212225996
  C         9.8942701950        4.3136336474        7.9902309782
  C        10.3717977694        2.3268811525        7.0362562029
  H        10.1988210389        1.3803232988       11.2488509554
  H        10.7673803155        0.7351973610        9.7510637474
  C        11.7311328294        2.4805877056       10.3648235011
  S         8.8559827967        6.2885744741        9.7342363542
  C         8.3584675210        5.5437641748       11.2442189614
  H         8.2101911813        3.4738282450       11.9821134148
  C        10.3103338293        4.9152459983        6.8563965343
  H        10.4546008071        1.2988930476        7.1120458886
  C        10.7334033645        2.9475774823        5.8408639951
  H        11.4018112685        3.4313558162       10.8024212629
  H        12.1840979070        2.5081521252        9.2903855673
  C        12.7914234987        1.9752374916       11.3394941577
  C         8.0318422863        6.3247100343       12.5526964847
  C        10.7609851755        4.2903449634        5.6726456822
  H        10.3429700889        5.9599344857        6.8951154157
  C        11.0980578599        2.4998648767        4.6169341168
  H        13.5607968897        2.6876732189       11.4994490558
  H        13.2274570475        1.0484030671       10.9914630180
  C        12.2508972208        1.7011000007       12.7608484147
  C         8.1182582765        7.7498482554       12.7421425741
  C         7.5734411008        5.4998308862       13.7178908976
  C        11.1392413719        4.9498247213        4.3771289074
  C        11.3519740560        3.5959781820        3.7563958178
  S        11.3582721089        1.0043513174        3.8620855197
  H        11.2787896843        2.2167149511       12.9090592722
  H        12.1295392587        0.6589768420       13.0301188329
  C        13.1889617325        2.3569802077       13.7368063029
  N         8.4424112121        8.6258655078       11.7209037252
  C         7.8268888439        8.2976267930       13.9506506518
  C         7.3526807411        6.1270798408       14.9212844512
  H         7.2239578951        4.5050182878       13.6076731143
  C        12.4703010209        5.7331149768        4.5396274848
  C        10.0438359856        5.7587955482        3.5930091543
  C        11.8601386468        3.1247305042        2.5348501607
  C        11.7126256740        1.7716961327        2.3422918273
  H        13.4441179226        3.4578638087       13.4828019472
  H        14.1137315878        1.8383336319       13.9187467046
  C        12.4865802121        2.3590959404       15.0936484651
  S         8.2798214098       10.1356383568       12.3568628105
  N         7.8762041481        9.6509124053       13.8904249669
  C         7.5052379904        7.5753759025       15.0997180866
  H         7.0922539221        5.4585664017       15.7415603320
  H        12.1934251707        6.6180872344        5.0563935488
  H        12.8084651719        6.1079650137        3.5258239795
  C        13.5701502710        4.9032518235        5.2561627217
  H         9.6191525062        6.5819805035        4.1694164384
  H        10.5179825380        6.1904849687        2.7203248092
  C         8.7453759986        5.0257615530        3.1812984795
  H        12.1099656166        3.9051015558        1.8267324631
  C        12.0637338624        1.0912783186        0.9858494787
  H        12.0114196290        3.3910941263       15.1685610835
  H        11.6930249286        1.5988803504       15.1075058804
  C        13.3665192776        1.9128549883       16.3785517233
  C         7.2062522060        8.2957296586       16.3333520058
  H        13.3727248737        4.5445132598        6.2616406479
  H        13.8858112889        4.0708102565        4.6831353620
  C        14.8555727168        5.7054755026        5.4618567420
  H         8.3047731150        4.5254401216        4.0635440754
  H         9.0423731971        4.1891156946        2.5025824591
  C         7.6922367763        5.9395243054        2.4856895782
  C        12.1019358670       -0.2997339172        0.8028969688
  C        12.2665212413        1.9372910864       -0.2124868927
  H        14.2978600386        2.5075853803       16.2563103484
  H        13.5971060259        0.8824459040       16.4981727411
  C        12.7308566758        2.3338454178       17.7454479693
  H         7.2794354835        9.3796612039       16.3995193305
  C         6.8363144756        7.8167521072       17.5580103399
  H        14.7156790210        6.7072260408        5.9620629386
  H        15.1526684914        6.0028358252        4.4251604407
  C        15.9006497532        5.0125803517        6.2885650468
  H         7.5313883621        6.8135048520        3.0999723200
  H         8.1476958878        6.3346683129        1.5910550676
  C         6.3779595635        5.2167042763        2.1334794614
  N        11.9944389806       -1.3235099581        1.8226122770
  C        12.3314523318       -0.9059102564       -0.4721946367
  C        12.4391148703        1.4211684807       -1.4691052688
  H        12.2869621412        3.0427508031       -0.1390057645
  H        13.1372176104        1.7517552881       18.5811327085
  H        11.6712934480        2.3082522433       17.8080514588
  H        13.0398440497        3.3063254511       18.0870674710
  S         6.4325556102        6.2004045379       18.1069127939
  C         6.6563570905        8.8554279406       18.6352597629
  H        15.3413972142        4.5064005933        7.0789692792
  H        16.3902569291        4.2552450712        5.6965471329
  C        16.9200617248        5.8436391567        6.9709837650
  H         6.1338649027        4.3729874996        2.6648180362
  H         6.5063335491        4.9145449847        1.0740262662
  C         5.1170862577        6.1530529030        2.2648455900
  S        11.9931075168       -2.7509190999        1.1055488432
  N        12.3205548083       -2.3186634591       -0.4679306553
  C        12.5218357256       -0.0798296817       -1.6729691149
  H        12.6274436855        2.1374767981       -2.2780623967
  C         6.1010085766        6.8904351068       19.7018206463
  N         6.3122900849        8.2074745014       19.7982019912
  O         7.0073710694       10.0262544556       18.4867407598
  H        17.2666918892        6.5481880893        6.2104722684
  H        16.3321559597        6.4224467222        7.6729526787
  C        17.9793399725        5.0126462811        7.7409579946
  H         4.2022467136        5.6231373888        2.1824627877
  H         5.1733739067        6.6272899492        3.2510232678
  C         5.0167863049        7.1373156932        1.1476970636
  C        12.8169726513       -0.6640707612       -2.9568600477
  S         5.6687961690        5.9172344439       21.0742970458
  C         6.2833848909        8.9349384831       21.0590996241
  H        17.8066071687        4.9351708207        8.8209993778
  H        18.2818060997        4.0273609027        7.4191365138
  C        19.2626487451        5.8805358619        7.6128851759
  H         4.6888196223        6.6341950763        0.1942379625
  H         6.0487535869        7.4953387343        0.9374273143
  C         3.9828061667        8.3118669506        1.3976376367
  H        12.4664084615       -1.6874632992       -2.8722350607
  C        13.3121756817       -0.1899257383       -4.1796240708
  H         5.4401949637        8.5596619541       21.7120311672
  H         5.8254142703        9.8942427158       20.8161675793
  C         7.6409582819        8.9321725459       21.7689509577
  H        19.9674056719        5.5157493675        8.3452350913
  H        19.0897591468        6.9985040749        7.7970404664
  C        19.7789978970        5.6742152091        6.2133768666
  H         3.5139063981        8.5976925901        0.4423719018
  H         3.2611335791        8.0078312676        2.1855409480
  C         4.6570866057        9.4991421625        2.1353507459
  S        13.9613385548        1.3286380168       -4.5074548904
  C        13.3944134024       -1.1558756109       -5.2371529495
  H         7.7231218626        9.7056233279       22.5415190595
  H         8.5445097918        9.0475388366       21.1144418280
  H         7.7556481952        8.0184249395       22.2682966932
  H        19.0989632811        5.0217406688        5.6088567251
  H        20.0241023083        6.6151715571        5.6900289265
  H        20.6337794145        5.1068597769        6.3934519468
  H         5.7235524872        9.4546532771        1.7834960553
  H         4.1026089370       10.3855799801        1.9674620509
  H         4.6209760141        9.4297738322        3.2209114265
  C        14.2960273602        0.6589559576       -6.1169001553
  N        14.0118735718       -0.6389639255       -6.3054565378
  O        13.0730938240       -2.3270132928       -5.1259536600
  S        15.1471963424        1.5217697762       -7.4155957665
  C        14.1686502756       -1.3866046359       -7.4505773108
  H        14.2130360119       -2.4359845773       -7.2363937638
  H        15.1346261843       -1.2879301943       -7.9466789550
  C        13.0703105965       -1.0852112495       -8.4220373143
  H        13.2713627554       -1.1739059847       -9.4663157733
  H        12.5832007229       -0.1385659712       -8.2634217686
  H        12.3254897986       -1.7643541506       -8.0933903313
  H        -3.0186241977       14.5007051167       16.1131132906
  C        -2.6606468556       13.4581694835       15.9438240648
  H        -3.3814257087       12.6242744136       16.0973260949
  C        -1.6243562176       13.3022861017       17.0601983100
  C        -2.0710596028       13.2335109573       14.5421640653
  C        -2.1989702998       13.4689220401       18.4750234039
  H        -1.1197167245       12.2842762043       16.9991981722
  H        -0.8985548084       14.0624143441       16.8828625333
  H        -1.3400357985       14.0060349492       14.2444523717
  H        -1.5399828305       12.3029767043       14.6312350355
  H        -2.9109731689       13.0437051257       13.8143230129
  C        -1.4077946531       13.0196299738       19.6603043995
  H        -2.9990757649       12.7050165757       18.3980550915
  H        -2.7050799825       14.4609608618       18.6131575139
  C        -2.1353552737       13.0344667899       21.0124061507
  H        -1.0972956040       12.0420906393       19.5129644658
  H        -0.4422506324       13.6115693028       19.8127127684
  C        -1.2417826141       12.6585180378       22.2055476951
  H        -2.8575102614       12.2029083771       20.9472614076
  H        -2.5516453529       13.9755115891       21.2118105141
  C        -0.0588464408       13.5491223064       22.4455838351
  H        -1.8157314129       12.4958741488       23.1366125054
  H        -0.8522857920       11.6811363335       21.9885147289
  C         1.1225760012       12.8736529664       23.1847333992
  H         0.2911193159       13.9563113729       21.5129621466
  H        -0.3825116665       14.3557598694       23.0829912003
  C         1.6407012528       11.6003473636       22.5111912158
  C         0.7628241602       12.1728836904       24.4578076087
  C         2.2020505105       13.9538813599       23.1966980234
  C         1.4368506288       10.4802478954       23.2822773514
  C         2.2013276331       11.2468483922       21.2666887415
  C         0.9800338357       10.8346498716       24.5692512965
  C         0.1929208037       12.7818325386       25.5183185488
  H         2.3920865178       14.2705186617       22.1723498895
  H         1.8386693404       14.7898792943       23.7295494315
  C         3.4410261207       13.4801685519       23.8979119932
  S         1.9095710528        9.0314593244       22.5610265290
  C         2.2010953323        9.8917116764       21.0984068236
  H         2.4389825929       11.9737134185       20.4820486722
  C         0.8146763931       10.2755500245       25.7782590216
  H         0.0320989418       13.8080276423       25.4832967353
  C        -0.0393087914       12.1925019879       26.7226364600
  H         3.9478185915       12.9362314698       23.1607164034
  H         3.1497121204       12.9942784757       24.8553586421
  C         4.3521255814       14.6776116593       24.2187387395
  C         2.6131860740        9.0854391278       19.9163750479
  C         0.3121450107       10.9038744963       26.9253112692
  H         1.0709532353        9.2428234886       25.9258165353
  C        -0.4534826430       12.5597371659       27.9727993169
  H         5.1682875040       14.5394859614       24.9132893937
  H         3.8440487696       15.4933901497       24.7070875627
  C         5.1142012407       15.3334604344       22.9677975865
  C         2.6106888573        7.6951827322       19.6738215352
  C         3.0366627485        9.9305398727       18.7606887379
  C        -0.0712948217       10.1758152770       28.1437055740
  C        -0.4846192777       11.4671865929       28.7707837425
  S        -0.8036634657       14.0626090827       28.6634027790
  H         5.5408113188       16.3332235718       23.1757390013
  H         4.2787912628       15.6499592709       22.3409973223
  C         6.1616232902       14.3916665722       22.4123992629
  N         2.3116153423        6.6965822550       20.6213753379
  C         3.0179565241        7.1378051586       18.4367169498
  C         3.4646943356        9.3347119642       17.5915709713
  H         3.0786234270       10.9778047624       18.7339964066
  C         1.2210372519        9.4832433196       28.9121347303
  C        -1.2336948669        9.2069437438       27.9716451263
  C        -0.8390702106       11.8636580684       30.0718389587
  C        -1.1894890106       13.1758680226       30.1402365661
  H         6.9281686577       15.0739495912       22.1835498666
  H         6.5186434827       13.7158666270       23.1933207154
  C         5.7544285283       13.6506409797       21.1172355926
  S         2.3861306006        5.2292997301       19.9257852202
  N         3.0492384349        5.7304637724       18.5836481957
  C         3.4654887011        7.8852914457       17.3597252462
  H         3.7709707250        9.9138698835       16.7649092270
  H         1.4051439632        8.6251289728       28.3328199249
  H         0.9136040293        9.1390760785       29.8791818936
  C         2.5060066685       10.3460091125       28.9914392047
  H        -0.8622980240        8.3984217375       27.3023039408
  H        -1.4289402182        8.7839458075       28.9477156718
  C        -2.5436320551        9.8608910621       27.3727605853
  H        -0.8222916849       11.0541264971       30.8652606552
  C        -1.4601198357       13.9560103905       31.3697488282
  H         4.9158104140       14.1047928145       20.7554183069
  H         5.4966414642       12.6648757873       21.4831996637
  C         6.9185131783       13.2847512359       20.1600826624
  C         3.7443619793        7.3073510438       16.0786569311
  H         2.8512434780       10.7237226985       28.0059936793
  H         2.2035128881       11.2999665998       29.4718595288
  C         3.5074377973        9.5780321922       29.8362434996
  H        -2.3972526853       10.0743877414       26.2714683611
  H        -2.8896667663       10.7144509508       27.9303412374
  C        -3.7125849829        8.8357411678       27.4331536471
  C        -1.4893882127       15.3960635062       31.4814207386
  C        -1.6441914617       13.2168513102       32.6362354533
  H         7.6719226908       13.9929508408       20.2022898123
  H         7.2830744495       12.2993276165       20.3325236206
  C         6.3915248079       13.2867693180       18.6789523632
  H         3.6620984892        6.2672693567       16.0797307746
  C         4.1328807282        7.7493722340       14.8583035764
  H         4.3632006406        9.2126330529       29.1621619635
  H         3.0988499378        8.6777569254       30.2371006451
  C         4.1760477623       10.3747717220       30.9201807857
  H        -3.3780085466        7.9868116314       26.7891843652
  H        -3.8127639099        8.4689650263       28.3936633054
  C        -5.0571756165        9.4599493463       27.3902463826
  N        -1.5583318829       16.3165868380       30.4186756531
  C        -1.6759734638       16.0604578080       32.6941879384
  C        -1.7622016767       13.8472880708       33.8266129470
  H        -1.3834622122       12.1511923883       32.7605723011
  H         7.1284649214       12.7827591065       18.0411360186
  H         5.5235469266       12.6654164906       18.6205262604
  H         6.1501639008       14.2244670671       18.3002152913
  S         4.5481478822        9.3611894510       14.2775204024
  C         4.1296633606        6.8019295505       13.7439320056
  H         4.3225262694       11.4335540800       30.6574139571
  H         3.6805482036       10.2731797540       31.9283254452
  C         5.5811104413        9.9225075977       31.1598165392
  H        -5.1421070748       10.2199195834       28.1490553147
  H        -5.7407484559        8.6533665120       27.5944273208
  C        -5.3611443194       10.0603430503       25.9496703771
  S        -1.4451344095       17.7879602673       30.9752107956
  N        -1.7584093210       17.4391330953       32.5548125512
  C        -1.7923539416       15.3712859320       33.8918619150
  H        -1.7412518138       13.2330100984       34.6417382285
  C         4.8233687131        8.7060180319       12.6692302410
  N         4.4690070281        7.3780131183       12.5346448497
  O         3.8233236351        5.6013517976       13.8346060969
  H         6.0485749613       10.5089181024       31.9110313242
  H         6.1600470133       10.0356480694       30.2543905088
  C         5.5975131652        8.4992420446       31.6718385379
  H        -4.6434854341       10.8693263061       25.6366614549
  H        -5.2972896785        9.3087431470       25.1551070696
  C        -6.7589156746       10.6449869015       26.0059311628
  C        -1.9443163316       16.1618122281       35.1064206999
  S         5.1614742476        9.7180139312       11.2812532392
  C         4.3948131698        6.5644765722       11.2795104926
  H         6.1725758909        8.5035209523       32.6417520710
  H         4.5834165059        8.2576102341       32.0167642059
  C         6.2482007942        7.3962879835       30.8950942071
  H        -6.7015060890       11.6622917140       25.6385503740
  H        -7.0319100983       10.8617722794       27.0749295299
  C        -7.8409932519        9.7345350102       25.3776210606
  H        -1.5853573174       17.1971242057       35.0524753396
  C        -2.4770941508       15.8820182843       36.3637195849
  H         5.0512174133        7.1606117095       10.6136742688
  H         4.8515622439        5.5149742188       11.4203348426
  C         2.9652526304        6.3394369751       10.7820377409
  H         7.3412434413        7.5209417760       30.9483337749
  H         6.0106701461        7.3862877736       29.8484459052
  C         5.9137271756        6.0125136146       31.4747771467
  H        -7.5781639079        9.4257414761       24.3737780735
  H        -7.8478034277        8.7734144993       25.9454029244
  C        -9.2384301845       10.3309389594       25.4418273139
  S        -2.9475016353       14.3266853149       36.9909689076
  C        -2.6922057625       17.0113098212       37.2847607296
  H         2.9138970074        5.3566175553       10.2261615368
  H         2.2288008050        6.2350647121       11.5533467099
  H         2.7268634130        7.1675546067       10.0885034296
  H         6.7337797799        5.2789002191       31.1398739497
  H         5.0689346925        5.6798505024       30.9253793358
  H         5.6248347881        6.1039219762       32.5189836211
  H        -9.5996084246       10.6927116813       24.4799237296
  H        -9.3374459806       11.2202812956       26.0272934814
  H        -9.9546212886        9.5960636436       25.8280673439
  C        -3.3663575468       15.2165980430       38.4841437836
  N        -3.3000568367       16.5893135985       38.3897765712
  O        -2.5572514809       18.2076407000       37.0464099766
  S        -3.9572885649       14.4875109151       39.9651595588
  C        -3.6055487819       17.6243359978       39.4064357433
  H        -3.8693614633       18.5418113772       38.8503280514
  H        -4.5331003354       17.2555383680       39.9533950459
  C        -2.3183381594       17.8855752921       40.2671416180
  H        -1.4347339559       17.5286339975       39.7767004271
  H        -2.2685849283       19.0095781377       40.3508309384
  H        -2.4604136529       17.6572090211       41.2884774450
