352
i=
  H         2.7029831578        3.2162418727       12.4353956670
  C         3.1135501558        2.2041825756       12.6005863640
  H         2.2716209111        1.4958469667       12.4552580275
  C         4.3625957465        1.8623887766       11.6874907600
  C         3.4576944109        2.0269128395       14.0462081780
  C         4.1258237828        1.9595404574       10.1636081072
  H         4.7722119354        0.8826608715       11.8764800317
  H         5.1090525101        2.5927214509       12.0487365337
  H         2.6729086579        2.3184544746       14.6684834538
  H         4.3565526211        2.5865864075       14.3597161828
  H         3.4658990512        0.9639224810       14.3589173815
  C         4.9229012665        0.9097436624        9.3643049986
  H         3.0272223676        1.7535085233       10.0313408685
  H         4.3740915272        2.9880842332        9.8352975961
  C         5.6571909357        1.6110160200        8.1136987615
  H         4.2672463012        0.1197075918        8.9424712023
  H         5.6909985287        0.4621290557        9.9728140568
  C         6.7976579046        2.6188279531        8.5438473034
  H         4.8432815754        2.1431051080        7.5155860264
  H         6.1982234004        0.9584073147        7.3736830569
  C         8.1281534203        1.8368352037        8.8925213592
  H         6.9463879543        3.1733011331        7.6190768153
  H         6.4716640717        3.2349813150        9.4489590529
  C         9.3937249394        2.6744038831        9.1042440586
  H         8.3747019017        0.9848371083        8.2578177767
  H         7.9844774958        1.3710037039        9.8734753002
  C         8.9602879483        4.0143432978        9.7146770785
  C         9.8725796304        3.3134854713        7.9154236175
  C        10.5266885083        1.8699683685        9.8835574516
  C         9.2390177147        5.1281631131        8.9794080808
  C         8.5186941384        4.3778632745       11.0246647480
  C         9.7585057983        4.6581848352        7.7760978818
  C        10.3032565461        2.6551609675        6.7740078838
  H        10.1367154531        1.4191119540       10.7697243546
  H        10.7498834196        0.9566333049        9.3196552710
  C        11.7524201971        2.6936188081       10.1404446200
  S         8.7204295083        6.5844223306        9.7021791871
  C         8.3334956254        5.7478043587       11.1751007331
  H         8.4223573759        3.6157683951       11.7644795796
  C        10.1843628848        5.1813641372        6.5836756003
  H        10.3880317125        1.6438002027        6.8381159521
  C        10.5777491647        3.2209456454        5.5755389519
  H        11.5515411163        3.6201493203       10.6660203279
  H        12.1753702077        2.9388429032        9.2498722808
  C        12.7376592287        1.8962055339       11.0696039219
  C         7.7641397675        6.4351844063       12.4077091229
  C        10.6030192138        4.5491773718        5.4263028103
  H        10.1581101383        6.2864776543        6.4469614528
  C        11.0113680155        2.7807768781        4.3363954634
  H        13.6994523030        2.4597157345       11.0122435255
  H        12.8327845459        0.8456800581       10.7254163870
  C        12.2632270862        1.9309459252       12.5148499491
  C         7.9053502314        7.7933213437       12.6465301773
  C         7.4419826507        5.5702737813       13.5783530350
  C        11.0253552449        5.2153631494        4.1408521327
  C        11.3051689497        3.8333666008        3.4976031241
  S        11.2861787170        1.2203640217        3.6854401698
  H        11.6108563142        2.7482002957       12.6451898950
  H        11.6190276977        1.0647016440       12.6141632471
  C        13.3950764347        1.8491800494       13.5356094228
  N         8.0944919565        8.7810908962       11.6911268891
  C         7.6346820706        8.3084540981       13.9127751052
  C         7.1733068088        6.0878650131       14.8430945810
  H         7.2947425448        4.5155444290       13.3897132303
  C        12.3878771600        5.9516751019        4.1759891760
  C         9.9393446830        6.0128440204        3.3399775961
  C        11.7420695737        3.3292881576        2.2880788437
  C        11.7673555076        1.9866716856        2.1934401922
  H        14.0856979989        2.5926061680       13.2073783776
  H        13.8999650338        0.8349376031       13.4382787062
  C        12.9802437947        2.1624111446       14.9859548605
  S         8.0656454225       10.2122363122       12.4221560824
  N         7.7198716942        9.6840451695       13.9491330514
  C         7.2356280048        7.6143927521       15.0165071531
  H         6.7778610680        5.3451149361       15.5343612228
  H        12.3388946430        6.8884422414        4.7242287003
  H        12.5856538784        6.2763625374        3.2058130156
  C        13.5455452637        5.1996453701        4.7827511293
  H         9.5852487215        6.9579140909        3.7448136222
  H        10.4220095061        6.2689856288        2.3652780695
  C         8.6306059594        5.2423903785        3.0939724174
  H        11.8349953764        3.9937250852        1.4754998728
  C        11.8795321452        1.1952898635        0.8934797154
  H        12.4869126337        3.1144541203       15.1241146810
  H        12.2218400029        1.3642990753       15.1541284824
  C        14.0384289809        1.9023823847       16.0366483717
  C         6.8557141854        8.3072265501       16.2060352182
  H        13.3106885190        4.9228356067        5.7586106655
  H        13.6641168229        4.2234905733        4.2551797607
  C        14.9093363888        6.0283515518        4.6134165644
  H         8.1070795013        5.2281100560        4.0459351323
  H         8.7962078223        4.1628148165        2.9268542681
  C         7.7634816760        5.8943482377        2.0181051897
  C        11.8930565194       -0.2238194733        0.7181715906
  C        11.9897129259        1.9325261639       -0.4044164245
  H        14.9686404864        2.4323383499       15.9264286244
  H        14.1968358160        0.8267328839       16.1367617973
  C        13.6384150640        2.5348544025       17.3689107755
  H         6.9766563440        9.4012110809       16.2369143639
  C         6.6415161749        7.8395503091       17.4681576766
  H        14.7527203164        7.0113204658        4.9800808185
  H        15.0161403837        6.1240594505        3.5580766993
  C        16.0984580872        5.1989615541        5.3154730743
  H         7.5512984784        6.9467603231        2.3534765693
  H         8.3060904596        6.0562243658        1.0816449404
  C         6.4354896225        5.2296579893        1.9806866820
  N        11.7929988927       -1.1334920267        1.7536298669
  C        12.2284038873       -0.8507491208       -0.4359498286
  C        12.2894746971        1.2924772477       -1.6001700800
  H        11.9695426121        2.9701105761       -0.4764466118
  H        14.0709167709        3.5295743169       17.4417298038
  H        14.0326059010        1.9497717394       18.2382035172
  H        12.5970568213        2.7312084782       17.4721179692
  S         6.4334194316        6.2399317476       17.9262830753
  C         6.5003266958        8.8274114133       18.6061360306
  H        16.1048249044        4.1049182200        5.1875750337
  H        17.0842266048        5.5907103896        4.9834054753
  C        16.1068810272        5.3387339699        6.7727685668
  H         6.3296157457        4.3932417252        2.6923266921
  H         6.2475702720        4.8534343439        0.9686147653
  C         5.2159332683        6.1553835336        2.2499870648
  S        12.0787582417       -2.6312376783        1.2044851317
  N        12.4784726652       -2.2138976907       -0.2684110634
  C        12.4771217746       -0.1835347665       -1.6128459740
  H        12.4590179521        1.8717417784       -2.5156243480
  C         6.3502049122        6.8188187060       19.5570542241
  N         6.2317667377        8.1700892465       19.7102267943
  O         6.8725015160       10.0324816779       18.4743044593
  H        16.1489338581        6.3409707866        7.0066303899
  H        15.3016921881        4.7977483041        7.1922953720
  C        17.4345498135        4.7366338237        7.2768153334
  H         4.2950305028        5.6058419233        2.4389674471
  H         5.4776847126        6.6785605022        3.1733585386
  C         4.9080777837        7.0737914831        1.0475458007
  C        12.8265458768       -0.9110661065       -2.8079881467
  S         6.0715330353        5.8244858988       20.9165056567
  C         6.2032954737        8.8361420458       21.0088537791
  H        17.2281038223        4.2515367146        8.1947608731
  H        17.7353543929        3.8577826411        6.6465974205
  C        18.6421815220        5.6280290787        7.4423984264
  H         4.5961188689        6.4225952678        0.2110304103
  H         5.8642909304        7.4303069528        0.6375997091
  C         3.9676675045        8.2504468034        1.2738483321
  H        12.6058033903       -1.9902211627       -2.7240180945
  C        13.3344760625       -0.4594709357       -3.9829181364
  H         5.6561685361        8.3687281531       21.8285835927
  H         5.7120191439        9.8368204283       20.7808505443
  C         7.6673872304        9.0542921914       21.5215942235
  H        19.1021082258        5.3945153065        8.3846983366
  H        18.3852598939        6.6798638521        7.4695520921
  C        19.7108812148        5.2653057510        6.4020108131
  H         3.7458834050        8.5184825981        0.2139145584
  H         3.1162002120        7.8530333863        1.7685831710
  C         4.7478743316        9.3122139503        2.0059044910
  S        13.8632205900        1.0846746519       -4.4390052307
  C        13.4559955313       -1.4820176196       -5.0244312347
  H         7.6150188718        9.5072702453       22.4863575881
  H         8.3406499194        9.6069484801       20.8992417773
  H         8.0786149087        8.0306359957       21.7590660357
  H        20.0678270191        4.2866786115        6.2534458620
  H        19.2480089812        5.5454082448        5.4861374919
  H        20.5935087683        5.9994177269        6.4875863257
  H         5.6547419678        9.4328532345        1.5339518427
  H         4.1968755842       10.2543973702        2.3098916252
  H         4.8914348210        8.9132152234        3.0179199844
  C        14.0227430436        0.4209174732       -6.0812717632
  N        14.0039286691       -0.9314022856       -6.1368262534
  O        13.1723083983       -2.6719873686       -4.9681680864
  S        14.8670703251        1.2572297312       -7.3159617403
  C        14.3731031997       -1.6684374154       -7.3047098250
  H        14.7300038575       -2.6059582335       -7.0399752668
  H        15.0865404739       -1.1493513286       -7.8953916622
  C        13.1779988313       -2.1725967721       -8.1364773366
  H        12.4513263617       -2.7881281250       -7.5853599702
  H        13.5289664666       -2.7628129999       -8.9773812574
  H        12.5560697598       -1.3360016154       -8.4592877349
  H        -3.4251452103       15.2321216375       16.0926628471
  C        -3.2182683511       14.2534865093       16.4821312495
  H        -4.1017325048       13.7012369118       16.6812321845
  C        -2.2492832015       14.4561163654       17.6919682632
  C        -2.6447535747       13.4570519632       15.3975351895
  C        -2.7322846401       13.8199975943       18.9824999275
  H        -1.2975153600       14.0115697535       17.4927833935
  H        -2.1390988661       15.5627488821       17.8902416427
  H        -1.8695262010       13.9916886007       14.8241673775
  H        -2.1477907153       12.4822797693       15.5583323942
  H        -3.4423533283       13.1144904143       14.7425854772
  C        -1.5858657120       13.2196014470       19.7539600415
  H        -3.3821695724       12.9463038423       18.7198160517
  H        -3.2504322174       14.4842475457       19.5907884773
  C        -1.8695908320       13.2175802889       21.2684683411
  H        -1.1830667968       12.2711531475       19.2872628748
  H        -0.8452452303       13.9265723028       19.6828248431
  C        -0.8055752136       12.4235204181       22.1229310892
  H        -2.8237600589       12.7497798318       21.3420703753
  H        -1.9621741693       14.2365824990       21.7412739458
  C         0.4108926989       13.3318782301       22.3214052972
  H        -1.3209401464       12.1419130867       23.0588342376
  H        -0.5643384759       11.5545386088       21.5205122990
  C         1.6324360178       12.8169086168       22.9994375358
  H         0.7409089999       13.4944049784       21.2847506740
  H         0.0589754979       14.2979259688       22.5949650046
  C         2.0494692989       11.4545478751       22.3665208209
  C         1.3266106196       12.1180088259       24.3050518403
  C         2.7478223799       13.8521022822       23.2206478700
  C         1.8022095801       10.3822313428       23.1991068783
  C         2.5343700997       11.0119979595       21.0833840627
  C         1.3499268135       10.7729708124       24.4297068616
  C         0.8001532606       12.7924748910       25.4267379503
  H         2.8617150153       14.5287215766       22.3621190723
  H         2.4240221501       14.5780781175       24.0137616055
  C         4.0560994312       13.2910101401       23.7818142233
  S         2.0733319450        8.8050811990       22.4665275285
  C         2.5345157902        9.6386011107       20.9940253148
  H         2.7041071375       11.7800241042       20.3680780796
  C         1.0509754759       10.1665701093       25.5961952013
  H         0.7523288812       13.8355185773       25.1908679906
  C         0.3688289651       12.2012796780       26.5927103983
  H         4.4155127195       12.4198204658       23.2374828683
  H         3.8311312270       12.9971871324       24.7998014892
  C         5.2154567514       14.3189725670       23.8759146335
  C         2.8141666820        8.9673812383       19.6899221287
  C         0.4062013800       10.8625740305       26.7056351281
  H         1.1074828399        9.0653071188       25.6824233926
  C        -0.0732184075       12.6839516399       27.7669150453
  H         5.8992722705       13.9537033849       24.5933133265
  H         4.8734992456       15.1560822212       24.4153600016
  C         6.0115768379       14.5972303826       22.5246371712
  C         2.8174263434        7.5717078916       19.5023275212
  C         3.2183832514        9.7925647887       18.5086552080
  C        -0.1025458892       10.2329828289       27.9266381308
  C        -0.3945117226       11.6063248749       28.5934485914
  S        -0.4316014538       14.2170463762       28.4509351740
  H         6.9062624877       15.1275074714       22.9294933313
  H         5.5293498801       15.2420151528       21.8264064336
  C         6.6377229785       13.3176258291       21.9254053245
  N         2.4398184256        6.6316651765       20.4530765435
  C         3.0562355396        7.0221038049       18.2367935655
  C         3.4367143084        9.1997595631       17.2426284208
  H         3.2077416934       10.8628702915       18.4924889848
  C         0.9483818232        9.3353245139       28.6390980154
  C        -1.4306963519        9.4265108296       27.7007814512
  C        -0.9502401161       12.0799370225       29.7731351110
  C        -0.9534802875       13.3956810560       29.9112382405
  H         7.7254819993       13.5336622856       21.9814822598
  H         6.4193885973       12.3862372542       22.4929459256
  C         6.3235634777       13.0567693345       20.4913684023
  S         2.4466947730        5.1825211667       19.7906269163
  N         2.9098024293        5.6069762484       18.2532968614
  C         3.3795301513        7.7380112284       17.0143149294
  H         3.7340448278        9.8056755009       16.4191873885
  H         1.1995844950        8.5432695977       27.9694820993
  H         0.5018247198        8.8168866151       29.4495591211
  C         2.0693770788       10.2060590767       29.0999695229
  H        -1.2712622960        8.5285826125       27.1499370901
  H        -1.6920047683        8.9722762193       28.6658113502
  C        -2.6697924140       10.3031421353       27.2899617808
  H        -1.2443078115       11.3557499609       30.5531161125
  C        -1.2547354054       14.1273662657       31.2224381968
  H         5.4722274584       13.6066102090       20.1130937213
  H         5.9271529808       12.0481796381       20.4529533667
  C         7.5427236520       13.1279212298       19.4612898041
  C         3.5869973333        7.0157729767       15.7808722804
  H         2.5795570050       10.7117978556       28.2670632390
  H         1.6941133395       10.8652407018       29.8180635845
  C         3.2041162585        9.4645197078       29.7726166136
  H        -2.3439936674       10.7014901458       26.3455529127
  H        -2.8927009728       11.1728661409       28.0348812419
  C        -3.9688259079        9.4685622252       27.1855655465
  C        -1.2247279960       15.5008314840       31.3798675669
  C        -1.3889886549       13.3505759535       32.4509479845
  H         8.2996881076       13.9727648576       19.6298154008
  H         8.0283521087       12.1662510513       19.7414362448
  C         7.1151743139       13.2815582355       17.9958283482
  H         3.3913903085        5.9307640428       15.8438295029
  C         3.7425610147        7.4721958510       14.4660544035
  H         3.6449924524        8.9263145201       28.9443991364
  H         2.7815292150        8.8068894367       30.6017357603
  C         4.2794408457       10.2880877612       30.4598310787
  H        -3.8443219449        8.8188435367       26.2957917140
  H        -4.1232987300        8.7845928291       28.0258817040
  C        -5.1990301492       10.3185271965       26.8021190296
  N        -0.9856515449       16.4403375925       30.3767909595
  C        -1.4665924371       16.1340119008       32.5947746679
  C        -1.5771219341       13.9554830926       33.6700694000
  H        -1.4307587255       12.2674376586       32.3532412237
  H         7.7922307839       12.8141697553       17.3801688541
  H         6.2128735264       12.7867782201       17.7365900557
  H         7.0161346459       14.2855790817       17.6039154600
  S         4.1284335451        9.1102774229       13.9648066724
  C         3.6902428015        6.4848831291       13.3741751386
  H         4.1328929628       11.3377004007       30.1591222109
  H         4.1178410499       10.2483498975       31.5285581147
  C         5.7150583472        9.8270278546       30.0912223476
  H        -5.1422424024       11.3535749499       27.1202757315
  H        -6.0953214519        9.9650161490       27.3391686546
  C        -5.4434579059       10.2410243232       25.2912537186
  S        -0.8877837196       17.8932376526       31.0637249598
  N        -1.3453770240       17.4884193575       32.6151345888
  C        -1.8446749461       15.4146572990       33.7318400199
  H        -1.6545973490       13.2773045565       34.5451048373
  C         4.1833881297        8.4553681118       12.3438381448
  N         4.1696171677        7.0734975367       12.2455599164
  O         3.4444302993        5.3058840499       13.5986140426
  H         6.4497635126       10.2991846268       30.6591844557
  H         5.9820504079       10.0607574980       29.0892699713
  C         5.8463189506        8.2857018936       30.3858175557
  H        -4.6158465256       10.6520124753       24.7582134665
  H        -5.4421340699        9.1609460801       25.0582883906
  C        -6.7102007035       10.9116654783       24.8494854484
  C        -2.1520177540       16.0982452180       34.9076560828
  S         4.8590677409        9.2603084338       10.8839705237
  C         4.3740167636        6.3163481550       11.0604787659
  H         5.2252192171        7.9751411208       31.2650658055
  H         5.5551961830        7.6401295788       29.5675057951
  C         7.1845895985        7.8712011453       30.8778331041
  H        -6.6908318480       11.1087660019       23.7893397862
  H        -6.9173027126       11.7036102965       25.5024701654
  C        -7.9121778656        9.9229698417       24.9066790929
  H        -2.1623601171       17.1009544096       34.8135017275
  C        -2.7217529564       15.7325324512       36.0556456528
  H         5.1564745816        6.5567490438       10.3921530819
  H         4.7261171789        5.3503138699       11.4377099349
  C         3.0261446986        6.0074387664       10.3398397516
  H         7.5306922226        8.4208837681       31.7438828717
  H         7.9627458745        7.9204430695       30.1413988199
  C         7.0657451751        6.3547152583       31.2338528522
  H        -7.8703968008        9.1638311658       24.1455317476
  H        -7.8675427399        9.6161705375       25.9776024590
  C        -9.2159885208       10.6704193373       24.8704758890
  S        -3.0909065764       14.1507372874       36.4719545788
  C        -3.0487465994       16.7753450818       37.0813372900
  H         2.9211241333        4.9606264051       10.2200637616
  H         2.1838445543        6.3614670143       11.0075358989
  H         3.0351049234        6.4879017747        9.3734228215
  H         8.0114435226        5.8318063974       31.3555016718
  H         6.4944959741        5.7707483046       30.5143989396
  H         6.4428602866        6.2892308728       32.1352628310
  H        -9.0736609097       11.6433375406       25.3465538231
  H        -9.9084681100       10.0749088741       25.4110759224
  H        -9.4931108433       10.6980041933       23.8279418216
  C        -3.5685027285       14.7926947373       38.0338659464
  N        -3.6042669717       16.1271579821       38.1148636687
  O        -2.8801901460       17.9755104843       36.8526791557
  S        -4.4836970018       13.9036612464       39.3016600405
  C        -3.8860509411       16.8003621705       39.3610345827
  H        -4.1980626388       17.8252063521       39.1705388918
  H        -4.6778993109       16.5277089597       39.9779423523
  C        -2.5769639436       16.8565129127       40.1467011186
  H        -1.8601279992       16.0722645725       39.9390387221
  H        -2.0681600238       17.7574896639       40.0008257343
  H        -2.8896053461       16.8672551723       41.2094522925
