352
i=
  H         4.5251928641        1.2816468889       12.4582708756
  C         4.0651262389        2.1411225096       12.7979886968
  H         4.8167942349        2.8585435988       12.9748079712
  C         3.1712677270        2.6320842440       11.6791982029
  C         3.4370975384        1.8386743875       14.2075618265
  C         3.9095800054        2.9614301935       10.3896179605
  H         2.5976648266        3.5206365449       11.8888875159
  H         2.4917521110        1.7426722726       11.5026243035
  H         2.9677015406        2.7262372621       14.5867884975
  H         4.2687758355        1.4983678296       14.8205496990
  H         2.7471841258        0.9573514231       14.1159692487
  C         4.3511165514        1.6645152172        9.5863391951
  H         3.3099059076        3.4325699620        9.6138843038
  H         4.6880698806        3.6289550050       10.5216977181
  C         5.0099466412        1.9278576280        8.2755115041
  H         3.4428101420        1.0548488936        9.3350157926
  H         4.9258279571        1.0058155503       10.3027729625
  C         6.3480026917        2.6412227614        8.1856645261
  H         4.3217664060        2.5738327796        7.7092997250
  H         5.1395062308        0.9904817668        7.6694970377
  C         7.4407516910        1.7146586011        8.8733972940
  H         6.4694569086        2.8681364180        7.1684197616
  H         6.1911190572        3.6277278419        8.6647091390
  C         8.7951839889        2.4536424334        9.1145445033
  H         7.5554407996        0.7178502683        8.3660851166
  H         7.0225705912        1.4832449770        9.7946421909
  C         8.6613455797        3.8392114069        9.8407779219
  C         9.2728841375        3.1524036157        7.8418366461
  C         9.8104178709        1.5893446021        9.8575805122
  C         8.8860554925        4.8988831088        9.0108078911
  C         8.2285929268        4.2233450326       11.1332930940
  C         9.3324412568        4.5089143100        7.7443502515
  C         9.8202530296        2.4927210140        6.6872751906
  H         9.3584534089        1.1745231113       10.8370757425
  H        10.1948005231        0.7649809507        9.2778069953
  C        11.1958941195        2.2440826725        9.9947422637
  S         8.5701682294        6.4280646308        9.7346980414
  C         8.0207405226        5.6173667417       11.1535454088
  H         8.1060372664        3.4466173267       11.8722934975
  C         9.7255690492        5.1903887508        6.5978634838
  H         9.9273409699        1.4388495881        6.8012501332
  C        10.2837016450        3.1705436073        5.5701722663
  H        10.9867943487        3.3050007491       10.2467067365
  H        11.6170148642        2.2264334394        9.0364541413
  C        12.0624081656        1.5958243863       11.0333228289
  C         7.4369124742        6.3281860230       12.3261916150
  C        10.1777999705        4.4900231903        5.4475180386
  H         9.8601799221        6.2292800132        6.5871540125
  C        10.7403426457        2.7121710127        4.3134596038
  H        12.9823478060        2.2682571182       11.2324478028
  H        12.2919318044        0.6020703352       10.7052353176
  C        11.2769230498        1.4076433589       12.3995064966
  C         7.4083911272        7.6855901716       12.6124089423
  C         6.8999240222        5.4452450611       13.3970972153
  C        10.6885134723        5.1669993457        4.1773223554
  C        11.0167690233        3.7925296317        3.4987570741
  S        11.0762608435        1.1959166119        3.5387082649
  H        10.7516001252        2.3183062223       12.6595539217
  H        10.5490103180        0.5964681647       12.3809292937
  C        12.2688473869        1.0297505384       13.4909959860
  N         7.7022485361        8.6354081734       11.6621267059
  C         7.1556756219        8.2251944516       13.8750784598
  C         6.5791004227        6.0149600481       14.6188339032
  H         6.6272573210        4.4371003146       13.2137821924
  C        11.9259362343        5.9669338287        4.4364106879
  C         9.5166344198        6.0341445763        3.6341540333
  C        11.4301682910        3.4329379355        2.1730799685
  C        11.4976204391        2.0555790631        2.0663706865
  H        13.1881802969        1.5234486566       13.2766357802
  H        12.5331795356       -0.1043258758       13.4079549424
  C        11.8612504011        1.4061639113       14.9138671681
  S         7.5512613185       10.1054240099       12.3577805378
  N         7.1590393087        9.6283654541       13.8726452163
  C         6.7515382527        7.4661140695       14.9738637958
  H         6.1904039656        5.4173203138       15.4146837029
  H        11.7682564263        6.5775854429        5.2494702150
  H        12.1541193442        6.5638408339        3.6387365791
  C        13.1125246898        5.1290682199        4.8972221324
  H         9.0708897781        6.6395338435        4.4160015591
  H         9.9332695918        6.7653162451        2.9083708088
  C         8.3472505704        5.2777037635        2.9690358770
  H        11.6778004080        4.1965827353        1.4058910126
  C        11.8932842050        1.3292248669        0.7989153991
  H        11.2648840341        2.2478106812       14.9179003178
  H        11.2343447256        0.6467608879       15.3653474382
  C        13.0361921710        1.5047122039       15.9260402383
  C         6.5254751034        8.1524363776       16.2055114136
  H        12.9563555820        4.6881003571        5.8489553357
  H        13.4236855893        4.2912150739        4.3543856139
  C        14.3428994518        5.9958575890        5.0294660030
  H         7.9155532026        4.5759942046        3.6621567616
  H         8.7192390511        4.6949953291        2.1511490778
  C         7.1440374275        6.1417009248        2.4010540219
  C        11.9452000230       -0.0686901532        0.5965327560
  C        12.1758335560        2.0552224757       -0.4260078975
  H        13.6093396280        2.3301298347       15.6249394359
  H        13.5507131703        0.5773716580       15.7718889304
  C        12.5574737330        1.7721555732       17.3685825176
  H         6.6040932013        9.2515136899       16.1077542247
  C         6.2405779098        7.7545676960       17.4926946168
  H        14.0802001170        6.7876735705        5.7778025881
  H        14.4550191177        6.4934829478        4.0646429600
  C        15.7043577008        5.3309721249        5.3193393178
  H         6.8903324256        6.8922041033        3.1075497038
  H         7.5786199292        6.5865097865        1.5341436992
  C         5.8336759711        5.5029526578        1.9605937428
  N        11.6856368997       -0.9844684823        1.6211478181
  C        12.3940012687       -0.6959426685       -0.5643130119
  C        12.5518131182        1.4361431045       -1.5981978111
  H        12.1104583321        3.1216764106       -0.3418599832
  H        12.0015129936        2.6796723385       17.3145118400
  H        13.4060338015        1.7077185609       18.0151622345
  H        11.8754999699        1.0104681424       17.7107023614
  S         5.7569423925        6.1680362038       17.8367855616
  C         6.1399308417        8.7266707110       18.5379014542
  H        15.9175886088        4.4824777175        4.6608066694
  H        16.5149574562        6.0902654044        5.1522619532
  C        15.8528581012        4.8916724518        6.7920800063
  H         5.0292950778        5.5953339548        2.6935228051
  H         5.9459056230        4.4336456494        1.8866122336
  C         5.3586583174        6.0819167734        0.6343604552
  S        11.6592211096       -2.5007884698        0.9697677288
  N        12.3444398493       -2.0523550637       -0.4939676165
  C        12.7689513346       -0.0221181508       -1.7218759910
  H        12.5060464431        2.0436710968       -2.4578455381
  C         5.6060991993        6.7483147939       19.5366074745
  N         5.8445605151        8.0663425709       19.7126569577
  O         6.3741984104        9.9246639804       18.4805424849
  H        15.6555098012        5.7249586544        7.4833712203
  H        15.0612463697        4.0903691643        6.9565430341
  C        17.2806689423        4.2843696186        7.1177508187
  H         6.0860747691        6.2015884972       -0.2282732277
  H         4.6717451126        5.3016852923        0.3049252900
  C         4.4697168078        7.3301167353        0.8509129768
  C        13.0497905662       -0.8140402456       -2.8767276396
  S         5.6532627054        5.6105929597       20.8764289250
  C         6.0471280084        8.7792888960       21.0290859332
  H        17.2517173147        3.5902517341        7.9419728523
  H        17.7248257830        3.7170570950        6.3258906772
  C        18.3021023734        5.3314130526        7.5341179059
  H         3.7919471768        7.1007886758        1.6850541800
  H         3.7672012453        7.4234620237        0.0887387966
  C         5.0849357739        8.6512982137        1.1572260820
  H        12.9371323480       -1.9078552121       -2.8652065534
  C        13.4726097227       -0.4166067451       -4.1305328537
  H         5.5262714960        8.2948775424       21.8365423875
  H         5.4412342738        9.6543999904       20.9064128487
  C         7.5433898789        8.7978083264       21.4968297942
  H        18.8541772825        4.9235372039        8.3642316083
  H        17.7371248261        6.2022561929        7.9832452071
  C        19.1926049420        5.6909874531        6.3671336006
  H         5.1431472386        8.7522831702        2.2402741008
  H         6.0699627796        8.6683202112        0.6196301586
  C         4.2310348142        9.7100094236        0.5214124046
  S        13.6659693939        1.2533963575       -4.6057908493
  C        13.6680245994       -1.3688011813       -5.2435620016
  H         8.2660976698        9.0673486160       20.7667133741
  H         7.8023917876        7.8679396705       22.0016089451
  H         7.6830471150        9.5226762948       22.3073721236
  H        18.6497305276        6.2613322207        5.5363353491
  H        20.0297860034        6.3104731366        6.6565314228
  H        19.5294316713        4.7436201969        5.8584472641
  H         3.1645594829        9.6516324794        0.8580707729
  H         4.5673986418       10.7453091110        0.7209247472
  H         4.3052421933        9.5505659921       -0.5430177563
  C        14.1800892184        0.6585290294       -6.2498904153
  N        14.1075376131       -0.7111741409       -6.3351882777
  O        13.4609201028       -2.5731517561       -5.1916265890
  S        14.8804749959        1.6554393700       -7.4780740028
  C        14.4013370335       -1.4335360200       -7.5851572334
  H        14.8294314221       -2.3610193527       -7.2399468613
  H        15.0754405220       -0.8649715321       -8.1785889538
  C        13.0909097924       -1.5847892177       -8.3559111533
  H        12.3002989494       -0.9053606829       -8.0952295648
  H        12.7485081206       -2.6463062542       -8.2897238653
  H        13.2036436868       -1.3071031655       -9.4511667684
  H        -3.4898432355       14.6251155548       16.2428677146
  C        -3.4146516657       13.5727013608       16.2435380626
  H        -4.4505089194       13.1683424963       16.5256606452
  C        -2.3762634274       13.1304048361       17.2607013489
  C        -3.0969026643       13.0437643573       14.8579051170
  C        -2.6378083203       13.6941948841       18.5966713659
  H        -2.3398422287       12.0320648380       17.3937319052
  H        -1.3355552059       13.3474596972       16.9712078331
  H        -2.1293695134       13.3718349271       14.5781350981
  H        -3.0925795567       11.9550936222       14.8973378054
  H        -3.7958028280       13.2992066665       14.1012189094
  C        -1.6817442122       13.1577369499       19.7456803761
  H        -3.7294696765       13.4547483167       18.6945905026
  H        -2.5723963807       14.7923891712       18.4289842409
  C        -2.2891392773       13.0111223675       21.1507068301
  H        -1.3601302758       12.1831106837       19.4209269944
  H        -0.9319362146       13.9191014142       19.7578054009
  C        -1.1268889027       12.5805472619       22.1116948316
  H        -3.0585578523       12.2551455025       21.0669205049
  H        -2.6845479330       13.8643398281       21.5839472065
  C        -0.0198108295       13.6174612336       22.3291590983
  H        -1.6287869153       12.5435295389       23.0612627475
  H        -0.8600587768       11.5639678501       21.7885247247
  C         1.2303710805       12.9851034855       23.1086500289
  H         0.3455004016       14.0169634887       21.3992665353
  H        -0.3579034255       14.4398522966       22.9141038607
  C         1.6400211633       11.6327567624       22.4982343434
  C         0.7869176164       12.3184383363       24.3601184532
  C         2.4746469544       13.9743712017       23.1958868948
  C         1.3905585465       10.5684685792       23.3315862622
  C         2.0330712435       11.1808712770       21.2816003556
  C         0.8675026643       10.9598889244       24.5469103767
  C         0.1899977509       12.9355454126       25.5244301559
  H         2.7171324759       14.2482738191       22.1692363524
  H         2.1441970762       14.7992967523       23.7389272780
  C         3.6470114116       13.3305605393       23.7221601563
  S         1.8537549501        9.0119606020       22.6763066127
  C         2.0819715394        9.8104811334       21.1692563761
  H         2.2515684547       11.8858061948       20.5467372452
  C         0.4528183361       10.3403439386       25.6343280616
  H         0.0005590270       14.0382039267       25.3952855317
  C        -0.1950950080       12.3398669004       26.7119110284
  H         3.8887761737       12.4016072027       23.2468656048
  H         3.5856475056       13.0125349356       24.7447577725
  C         4.8782509593       14.3288849747       23.6959035377
  C         2.4473378704        9.1066774626       19.8672667841
  C        -0.0412007681       10.9710108826       26.8123327872
  H         0.5023083088        9.3283233524       25.7282390340
  C        -0.6163730133       12.6650832837       28.0022654547
  H         5.6458194912       13.9382029306       24.3498635676
  H         4.5930365859       15.2553075337       24.1309323522
  C         5.5249079730       14.5190952931       22.3125321245
  C         2.2922425358        7.7673326664       19.5260144622
  C         2.7165550827        9.9759609054       18.6392121857
  C        -0.5281950429       10.1754959242       28.0235337865
  C        -0.8532217033       11.4841559644       28.7516886940
  S        -0.8306829567       14.1317546448       28.8426354598
  H         6.2718466687       15.3356339938       22.5857606349
  H         4.8233030053       15.0051991438       21.6503371976
  C         6.3134700772       13.2994272604       21.7166850050
  N         1.9215815717        6.8191285418       20.4725328438
  C         2.5357964006        7.1926305176       18.3009072719
  C         2.9082730792        9.4107101443       17.3815384909
  H         2.8713485653       11.0536294772       18.7719657458
  C         0.7415926266        9.2818990040       28.5008250240
  C        -1.8039662996        9.2797916089       27.8085500062
  C        -0.9262762929       11.8373650839       30.1090168654
  C        -1.0978181859       13.1852298854       30.3025622691
  H         7.3103507099       13.6573275060       21.4830562225
  H         6.5351058979       12.5342806909       22.4545670929
  C         5.5985436261       12.8174089574       20.5017206365
  S         2.1408974310        5.2993951116       19.8285080795
  N         2.5121740506        5.7904042793       18.3201446564
  C         2.8757166342        7.9466663931       17.1691063304
  H         3.2010318058       10.0697657449       16.6826926098
  H         1.2372427375        8.6746069435       27.7436050027
  H         0.3703652052        8.5291033789       29.1583965018
  C         1.8871688715       10.0501798944       29.2463856803
  H        -1.5312048020        8.6070975013       27.0556566618
  H        -2.1615887848        8.7640900743       28.6826429548
  C        -3.0688101852       10.0711955561       27.3467600986
  H        -0.8279230922       11.1074822782       30.8804607444
  C        -1.3210904609       13.9667559494       31.5642072520
  H         4.4838850810       12.9062808758       20.5377323156
  H         5.8140791024       11.7695779314       20.2338238926
  C         5.9404801437       13.5687268436       19.1760338004
  C         3.1292446289        7.2500106847       15.9355275295
  H         2.3396509971       10.5970254081       28.4929138082
  H         1.6007582194       10.5686641662       30.2061100946
  C         2.8169597019        8.9816220585       29.7393216602
  H        -2.8413033799       10.7271794350       26.5098363112
  H        -3.4063136080       10.7779591663       28.1016558094
  C        -4.2063368091        9.1507293363       26.9487523188
  C        -1.4316528927       15.3677716266       31.7261031801
  C        -1.4935615867       13.1978515416       32.7882921204
  H         5.2155926699       13.0870802537       18.5585100173
  H         5.6975277380       14.5791064905       19.1342515285
  C         7.3703087832       13.2209770430       18.7580213484
  H         3.1050415203        6.2148807202       16.0130255029
  C         3.3562320469        7.6275515403       14.6317975399
  H         3.1660141861        8.3758263806       28.9380071268
  H         2.2396054606        8.3631279948       30.4166809597
  C         4.0649195282        9.6022878735       30.3900716862
  H        -3.8351446334        8.6370666340       26.0449868910
  H        -4.4197269522        8.3581825669       27.7156879097
  C        -5.4812821865        9.9103468862       26.5559354794
  N        -1.3722235352       16.2914030655       30.7409030497
  C        -1.7587987166       15.9481367391       32.9673592922
  C        -1.8014545823       13.7326884856       34.0166075885
  H        -1.2521433054       12.1899650440       32.7185431624
  H         7.6151454411       13.1522588961       17.7177172900
  H         8.0046307092       14.1172994183       18.9963091187
  H         7.6396670802       12.2220335029       19.1429219324
  S         3.3704994121        9.2492454279       14.0493591823
  C         3.3199592620        6.5840748074       13.5495966938
  H         4.3219623844       10.4371060363       29.7632800138
  H         3.8454562321        9.9902352004       31.3720736190
  C         5.1178542942        8.5206782352       30.4326276773
  H        -5.1254772732       10.6950625046       25.8863253876
  H        -5.9216123984       10.2851964816       27.4300998015
  C        -6.5679250223        9.0198238264       25.8421992332
  S        -1.3371773317       17.8203006721       31.3737192364
  N        -1.7491505545       17.3638683101       32.9231355519
  C        -2.0504715622       15.2251221946       34.1287235099
  H        -1.8419837106       12.9864914306       34.7612244713
  C         3.6691939800        8.6126055205       12.4617501985
  N         3.6484389352        7.2401761343       12.4132760428
  O         3.1695990179        5.3789142737       13.7378854048
  H         6.1148860600        9.0039574861       30.8221965848
  H         5.3980384772        8.2599722246       29.4024339139
  C         4.8109689962        7.2979206711       31.3358292910
  H        -6.1709185632        8.4718272110       25.0057716615
  H        -6.9864805711        8.3895126387       26.5760629997
  C        -7.6485194977        9.9497628985       25.2529910042
  C        -2.5875636312       15.8920393279       35.2261914764
  S         4.1687627170        9.6344030455       11.0399716199
  C         3.5580903787        6.5727791445       11.1367403941
  H         4.7918696372        7.6455811938       32.3857659987
  H         3.7704231649        6.9505846888       31.2582081610
  C         5.7719639239        6.1570686365       30.9337229657
  H        -7.4444339033        9.9384603462       24.1474891529
  H        -7.5112996862       11.0461643696       25.5319711736
  C        -9.0235655007        9.3801963045       25.3818754090
  H        -2.5661772156       16.9949102042       35.1972531447
  C        -3.0661932959       15.3568533970       36.4414535306
  H         4.2358003657        7.0611867142       10.4435435813
  H         4.0341690541        5.5939725053       11.1405184237
  C         2.1902462283        6.3037944435       10.6919282806
  H         6.7308420270        6.5730466826       30.6052178407
  H         5.3957169922        5.7662573510       29.9557858595
  C         6.0601670506        5.0706862906       31.8926999837
  H        -9.7547030975        9.8247664438       24.6799076522
  H        -8.8972525562        8.3454405438       25.0157977828
  C        -9.4944833823        9.4216598204       26.8306066805
  S        -3.2974575146       13.6978801248       36.8559912358
  C        -3.4318851794       16.2694509985       37.5211910646
  H         1.7849197161        7.0811906285       10.0527759310
  H         2.2629327971        5.4798181747       10.0419540714
  H         1.4484913868        6.1022546283       11.4706587236
  H         6.1422512631        4.0759302976       31.5277448192
  H         5.3332997880        5.1301019914       32.6581958936
  H         6.9442401710        5.2525848472       32.4435748659
  H       -10.5782640326        9.5086036957       26.9535071746
  H        -9.0836111507       10.2038659686       27.4164459331
  H        -9.1439037478        8.5453581884       27.2716014178
  C        -3.9337366308       14.2271449310       38.4265343406
  N        -3.8376191645       15.5346399840       38.6168835862
  O        -3.1869418244       17.4661614884       37.5349235702
  S        -4.2639476250       13.1028294934       39.7865730354
  C        -3.9409351811       16.1954660976       39.9019910244
  H        -4.2028251298       17.2148066828       39.6590762459
  H        -4.8253615662       15.8577183027       40.4754816055
  C        -2.6253995362       16.1846583603       40.5137283205
  H        -1.7695159211       15.8110376998       39.8944456954
  H        -2.3418631483       17.1875511658       40.8324422157
  H        -2.6404159073       15.5302475160       41.3632796334
