352
i=
  H         5.0880626866        1.6590630697       12.7396279430
  C         4.1766279277        2.2407152774       12.9111731930
  H         4.5585617248        3.2697959204       13.1499002172
  C         3.2804680508        2.1447106540       11.6767781031
  C         3.5196130576        1.8185681899       14.2553768762
  C         4.0965868461        2.4492603448       10.3647208022
  H         2.3067762394        2.6647768351       11.8256489616
  H         3.0992190225        1.0658505036       11.7945474775
  H         2.7215576485        1.0678512629       14.0271109493
  H         2.9827946349        2.5653652389       14.8241698143
  H         4.2905048681        1.5155719062       15.0108786938
  C         4.8261842565        1.2602587597        9.8159600592
  H         3.6259480970        2.9747009215        9.5926689163
  H         4.8221626149        3.2203107947       10.6017840320
  C         5.5108535043        1.5833723683        8.4985806077
  H         4.2223734690        0.3783008045        9.5356907117
  H         5.4374386248        0.8132850088       10.5991150364
  C         6.7858154738        2.3697137142        8.6467747923
  H         4.8433807152        2.0829947045        7.7330852105
  H         5.7118418325        0.6049192895        8.0302977624
  C         7.9780695020        1.5948222522        9.1184194194
  H         7.0224276516        2.6248503148        7.6421118315
  H         6.5794951328        3.1941596877        9.1916206988
  C         9.1986662909        2.4624074536        9.3990072952
  H         8.2484291564        0.8275910641        8.4412701008
  H         7.6620841067        1.1843654778       10.0868965283
  C         8.6629892042        3.7675573479       10.0768544232
  C         9.5880057992        3.2254641070        8.1820065000
  C        10.3619212621        1.9414311564       10.2403271420
  C         8.8803799342        4.9110572736        9.3195886670
  C         8.2008094633        4.0699033907       11.3677296428
  C         9.4546060687        4.5739065833        8.1138804157
  C        10.0223888490        2.6762819444        6.9852917624
  H         9.8290846737        1.5518656322       11.1193769928
  H        10.6871156102        0.9938325340        9.7673996679
  C        11.5300664958        2.9219877138       10.5553473530
  S         8.4686212167        6.4318280646       10.0641250485
  C         8.0081974402        5.4446687851       11.5296702862
  H         8.0443947639        3.3205958206       12.1169868732
  C         9.7283099799        5.2317707239        6.9409589255
  H        10.1767364466        1.6360846410        6.9322978360
  C        10.1986615601        3.3108513814        5.8267395853
  H        11.2324411900        3.8987581886       10.9362264963
  H        11.9983066908        3.0529062416        9.6230818135
  C        12.5821697167        2.3463322631       11.5476216422
  C         7.6134035297        6.1113345303       12.7895907235
  C        10.0979164579        4.6642979436        5.7271008524
  H         9.5145991680        6.2558306559        7.0523992515
  C        10.5970151883        2.9968848977        4.5368866849
  H        13.4763755605        2.9566730923       11.6434032277
  H        12.9360760429        1.3614178501       11.1635511586
  C        12.0743450137        2.0770084426       13.0032803023
  C         7.8071068775        7.4699427419       13.1910344146
  C         7.0797107396        5.2440784892       13.8398016244
  C        10.4365850045        5.4057770425        4.4724645532
  C        10.7563305896        4.1249029711        3.7364986173
  S        11.0606718487        1.5583233616        3.7128143520
  H        11.7934784145        3.0165383682       13.4623331545
  H        11.1664495728        1.5284939345       12.9985088692
  C        13.1593461705        1.3612443296       13.7855804167
  N         8.3334724152        8.4140024631       12.3416316609
  C         7.5832631264        7.9814648425       14.4516163788
  C         6.8060176790        5.7828547891       15.1155369741
  H         6.9511612480        4.1898855170       13.6186674185
  C        11.6622121329        6.2801114486        4.5248647936
  C         9.2508654130        6.1116272010        3.6935790963
  C        11.1653357273        3.7999916280        2.4387357006
  C        11.4606590114        2.4604958609        2.3363705119
  H        13.9707786428        1.9870530332       13.8910706640
  H        13.5507622489        0.5161526996       13.2243632966
  C        12.6536520577        0.7225465251       15.0443405502
  S         8.3817428668        9.8737333681       13.1084546919
  N         7.8744252974        9.3421539470       14.5447770351
  C         7.1332763832        7.2088014416       15.5128417351
  H         6.4610414560        5.0267893594       15.8372912540
  H        11.3785983852        6.9637123746        5.3350618390
  H        11.7776727064        6.8138892481        3.5950406650
  C        12.9015059153        5.4115713335        4.8603470954
  H         8.9069127626        6.9156820250        4.3053318013
  H         9.6622280235        6.5630338310        2.8389181998
  C         7.9964450925        5.3919737406        3.3643670432
  H        11.3164557827        4.6038072737        1.7126613982
  C        11.7862286421        1.8202753573        1.0271631022
  H        11.7088688957        0.2592493638       14.8977250132
  H        13.3310284203       -0.0063846053       15.4310054814
  C        12.4383351847        1.7323903306       16.1690728260
  C         7.0099347082        7.7792274560       16.8330744577
  H        12.8436418431        4.6148871385        5.5657901763
  H        13.3227054641        5.0148441715        3.9269113988
  C        14.1548733347        6.2737381734        5.2560922124
  H         7.5069730056        4.8970633746        4.2449044084
  H         8.1600454789        4.6150522670        2.6107288705
  C         7.1248225576        6.4277301240        2.6249100521
  C        11.9338587229        0.4226413219        0.8159015354
  C        12.0263896282        2.6253534779       -0.1673564363
  H        11.4238327122        1.5002988944       16.5236968587
  H        12.5348805181        2.7377411848       15.7634232854
  C        13.4200585533        1.7215375460       17.3539035387
  H         6.9868216927        8.8583162736       16.7973001383
  C         6.6586254980        7.2745943118       18.0726228930
  H        13.8355144499        6.8528528255        6.1290103895
  H        14.6202813922        6.8686930965        4.4874812874
  C        15.2947023878        5.3548182771        5.7692603591
  H         7.0175298869        7.3301441291        3.2536985595
  H         7.5990647648        6.7671079633        1.6737089875
  C         5.6962908802        5.9120995438        2.4359009638
  N        11.7686630685       -0.5186600733        1.7903793625
  C        12.3679946346       -0.1150400750       -0.4267666037
  C        12.3563626037        2.0804322166       -1.4195740614
  H        11.9146631764        3.6841017629       -0.1629734701
  H        13.1504805701        2.5415813859       18.1127611098
  H        14.4194184960        1.7358332437       17.0509733429
  H        13.3019356211        0.8243708757       18.0008281406
  S         6.3665358981        5.6022608154       18.4452766639
  C         6.3751945650        8.2581625722       19.1391616530
  H        14.9169885589        4.7220262144        6.5432742947
  H        15.7032934159        4.6504995472        5.0345502275
  C        16.4488666993        6.1329899720        6.4063356914
  H         5.1997137033        5.8282886433        3.4169665992
  H         5.7837632952        4.8572221283        2.0625941383
  C         4.8074358111        6.7170085563        1.4763285244
  S        12.1629543228       -2.0078394985        1.1733660421
  N        12.4380788386       -1.5377171610       -0.3347376943
  C        12.4652322833        0.6300477404       -1.5751702546
  H        12.5701080515        2.7883822022       -2.2619759042
  C         5.8947981501        6.2301761512       20.0602120095
  N         5.9181627329        7.5771222977       20.2039768127
  O         6.5892908462        9.4423910618       19.0118249689
  H        16.7805470521        7.0376337334        5.8248997354
  H        16.2548917987        6.5243530450        7.4391248856
  C        17.6659275065        5.2499483472        6.5923333266
  H         5.5139849920        7.3357863184        0.9257790518
  H         4.3858822984        6.0806119786        0.7145532048
  C         3.8436435366        7.6791867730        2.2702994364
  C        12.8261490067       -0.0612782125       -2.7295850476
  S         5.3364932961        5.1908743909       21.4212167916
  C         5.7081421177        8.1754581209       21.5865635998
  H        17.2391058617        4.4069540608        7.0615012647
  H        18.1216136755        4.9460241941        5.6658095062
  C        18.6838846130        5.8028565692        7.5316767407
  H         3.8866306794        7.5853154238        3.3265588062
  H         2.8568563731        7.3259146206        2.0112266488
  C         3.8679672470        9.1398367990        1.8664816082
  H        12.6778909072       -1.0880359398       -2.7637590540
  C        13.4252408136        0.3592918395       -3.9114781422
  H         4.8161208612        7.8846045532       22.1030538973
  H         5.4176519977        9.2150970390       21.4505914136
  C         6.9966407877        7.9923456081       22.4917664282
  H        18.9263993882        5.0460308423        8.2747699541
  H        18.3407641590        6.7013793284        8.0483301068
  C        19.9084093557        6.2029021897        6.7550625789
  H         3.2046687643        9.7942106741        2.3520535522
  H         4.8128312170        9.4888585216        2.1423478483
  C         3.7044270569        9.2980718614        0.3248527099
  S        13.8798138046        1.9572623058       -4.3866801760
  C        13.5865114331       -0.7104724392       -4.9225524565
  H         7.0679358424        7.0231911132       22.9926616810
  H         6.9560391617        8.8020270468       23.2595436588
  H         7.9101868942        8.1246734761       21.9812762774
  H        19.7411753252        7.1708743388        6.2651593273
  H        20.8934167245        6.2461241652        7.2909701045
  H        20.0349096136        5.4419203180        5.9698550791
  H         4.6879006859        9.4123542277       -0.1999782895
  H         3.1056883729        8.6091263566       -0.2166517268
  H         3.2260778786       10.2546760880        0.0674356491
  C        14.2113867724        1.1993406734       -5.9404436804
  N        14.1375376673       -0.1418560790       -6.0241820626
  O        13.3062930659       -1.8647944903       -4.7776977174
  S        15.1108530007        2.1419894324       -7.2143892270
  C        14.6195900082       -0.9143607971       -7.1638270847
  H        14.6667515393       -1.9819918487       -6.9000587056
  H        15.7284984340       -0.7046814899       -7.2167514290
  C        13.7800599512       -0.6558143692       -8.3929014160
  H        14.2233327975       -0.1670885099       -9.2330774198
  H        12.9716998535       -0.1114777214       -7.9701026929
  H        13.1847394594       -1.5388045469       -8.7817885128
  H        -3.9148976185       14.6632494306       16.2468834065
  C        -3.2278701562       13.8096862866       16.2841464208
  H        -3.7917660124       12.8524402959       16.5883445368
  C        -2.0958623035       13.9271827670       17.2421833543
  C        -2.6236490877       13.5137934210       14.9117541592
  C        -2.3797428374       13.1989121996       18.5868451222
  H        -1.2239503067       13.4191147103       16.7846861945
  H        -1.9083112566       15.0360918132       17.3734962633
  H        -2.3409746324       12.4199566122       14.7679832903
  H        -3.2268533481       13.7597556310       14.1066013914
  H        -1.7038150170       14.1471045298       14.7599414850
  C        -1.4646739810       13.7064498675       19.7251877153
  H        -2.3023303491       12.0826722240       18.5761105328
  H        -3.4241176490       13.4682633294       18.8264439146
  C        -2.1287969435       13.5119400720       21.1364409440
  H        -0.5115606313       13.0839852706       19.6634718459
  H        -1.1418880466       14.7560687813       19.5951149251
  C        -1.1843166965       12.8551301889       22.1363102911
  H        -2.9596101841       12.8362947361       21.0902268652
  H        -2.3136292309       14.5224063693       21.5391977057
  C         0.0760289688       13.6631486629       22.5346911326
  H        -1.6521252835       12.5369866432       23.0885624637
  H        -0.9102971764       11.9308871737       21.6558646922
  C         1.2419004803       12.8933542346       23.2596712296
  H         0.5309190625       14.2034556631       21.7126479393
  H        -0.3290543736       14.3973429643       23.1903886048
  C         1.4848644757       11.5338812701       22.5743970474
  C         0.7062251567       12.2066740648       24.5191340152
  C         2.4782470119       13.7563401972       23.5239878771
  C         1.3059279415       10.4524784834       23.3875688392
  C         2.0392219177       11.1410321799       21.3207917781
  C         0.8157538106       10.8507487893       24.6106100597
  C         0.2248720231       12.8071448520       25.6396965412
  H         2.7243381172       14.3070400338       22.6201900957
  H         2.1784832951       14.5819999633       24.1825151926
  C         3.7100348602       13.0697452204       24.0993440570
  S         1.7445344261        8.9651458809       22.6745689239
  C         2.1729900060        9.7801392519       21.2450284625
  H         2.2194156980       11.9282988538       20.6601989466
  C         0.4896191288       10.2370966750       25.7684961273
  H         0.4414231629       13.8925020939       25.6565262431
  C        -0.1450616170       12.1549083976       26.8027615554
  H         3.9998301295       12.1559101939       23.6007886031
  H         3.4023950762       12.7309908029       25.1069426620
  C         4.9727672018       13.8777852855       24.2683804846
  C         2.5676057810        9.1005448333       20.0301675509
  C        -0.0552237208       10.8345361251       26.8966993575
  H         0.8644339787        9.1693791153       25.7734541006
  C        -0.5901377092       12.5406415227       28.0692298535
  H         5.5866145643       13.3375677507       24.9942733069
  H         4.6474688160       14.8355907419       24.7691281057
  C         5.7005476409       14.0653497906       22.9691475106
  C         2.5351786169        7.6758040770       19.7959509172
  C         2.9343158365        9.9136615058       18.8622888814
  C        -0.4461352826       10.1488103334       28.2497378852
  C        -0.8054425513       11.4880687237       28.8929408278
  S        -0.9682044724       14.1502994562       28.6142157476
  H         6.2975846118       15.0278654945       23.1533605339
  H         5.0614669102       14.2670630979       22.1111785865
  C         6.7552910920       12.9385105196       22.6091272979
  N         2.3202129769        6.6328770618       20.7536278125
  C         2.9339424780        7.1121891429       18.6039050337
  C         3.1463460234        9.3530043736       17.5634474241
  H         3.1094119226       10.9253725970       18.9389772552
  C         0.6384868743        9.3757962489       28.9657870606
  C        -1.6807649799        9.2499091948       28.0131316511
  C        -1.2637841391       12.0384072178       30.1483840427
  C        -1.2325123451       13.4288505804       30.1886291494
  H         7.5839364993       13.5069255726       22.1897737588
  H         7.2187799918       12.3805460309       23.5484829457
  C         6.1819750023       12.0392473509       21.4868121502
  S         2.3884046619        5.2178452564       20.0287128912
  N         2.7688867381        5.7771838017       18.5874000194
  C         3.1956280282        7.8596274343       17.4338032858
  H         3.3021503226        9.9777745417       16.7693608080
  H         1.0553312052        8.6313243257       28.2842428767
  H         0.2020881673        8.8641017304       29.7749083055
  C         1.7473933326       10.2287143377       29.4910576424
  H        -1.4394744965        8.6769256984       27.1517144126
  H        -1.8493759282        8.5975170277       28.8554896970
  C        -2.9240042298        9.9922900669       27.6455423805
  H        -1.5094911198       11.3843850632       30.9584866799
  C        -1.5461505681       14.2352096512       31.4263705142
  H         5.2528675541       11.4341179050       21.8533398558
  H         6.8998014535       11.1725852198       21.2394189839
  C         5.9828794163       12.6503601261       20.1142190291
  C         3.4028823412        7.2119412321       16.1565243610
  H         2.0947404366       10.7170118727       28.6392428849
  H         1.3821141469       10.9832600896       30.1722021567
  C         2.8841822658        9.4677575217       30.1453133619
  H        -2.5964172099       10.7725070305       26.9608920876
  H        -3.2645664888       10.5534998119       28.5232941471
  C        -4.1555892769        9.2198572323       27.1137074811
  C        -1.6430352538       15.6456630790       31.5189127139
  C        -1.7130026035       13.4743924934       32.7089412261
  H         5.4596022171       11.9389445708       19.4746340426
  H         5.3924617084       13.5585531793       20.2027990269
  C         7.3441258072       12.8651648535       19.4680800799
  H         3.2979563912        6.1187177923       16.2255508047
  C         3.8209648788        7.5986707317       14.8941011350
  H         3.3566288801        9.0603261614       29.2596987529
  H         2.4475406481        8.6129747523       30.6999807162
  C         3.8866530205       10.2651592364       31.0291596397
  H        -3.7417278441        8.5688821642       26.3030229857
  H        -4.5886696010        8.4790521168       27.7495102489
  C        -5.3002039496       10.1546819903       26.6833741368
  N        -1.4972314839       16.5526273424       30.4124333064
  C        -1.9760231922       16.2815967615       32.7287713553
  C        -2.0351711885       14.1118364452       33.8887927998
  H        -1.5767140957       12.4087531529       32.7063578661
  H         7.0840017651       13.1727486383       18.4759594042
  H         7.9267479184       13.6195252644       19.9662782721
  H         7.9676408861       11.9841401920       19.4722357940
  S         4.1932240221        9.1830835770       14.3934871249
  C         3.7859115060        6.5559104470       13.8131064675
  H         4.1092169951       11.2565734134       30.7213809836
  H         3.4315739489       10.2898048373       31.9862653820
  C         5.2529040693        9.5354574238       31.1145296021
  H        -5.0329220713       10.9830104162       26.0836688521
  H        -5.8242618816       10.6160716285       27.5360372410
  C        -6.4021734998        9.4626439583       25.8935104594
  S        -1.6549963950       18.0400123402       30.9885752705
  N        -2.0863345045       17.6366132402       32.5292151410
  C        -2.1777539878       15.6335671840       33.9546915401
  H        -2.1072888675       13.5224998040       34.8088630978
  C         4.3190276652        8.5073172616       12.7685264854
  N         4.2149963881        7.1521994055       12.7098236109
  O         3.5197516987        5.3648103743       14.0114385532
  H         5.9317606372       10.2689820032       31.5956702495
  H         5.5806515796        9.2440309401       30.0786098158
  C         5.3012029419        8.2263251092       31.9243657399
  H        -5.8919886011        8.8864881296       25.1474305225
  H        -6.9313112320        8.7778313789       26.5917667884
  C        -7.2223815153       10.5476829782       25.2839437831
  C        -2.5206753177       16.3725528746       35.1410415503
  S         4.9741133672        9.4070816759       11.3595358554
  C         4.4393609766        6.3378326961       11.4763956990
  H         6.2395211916        8.3074654686       32.5119611167
  H         4.4303746783        8.3053891525       32.5872484667
  C         5.4015996830        6.9651676728       31.1508218781
  H        -6.7995296386       11.0891587062       24.4378569760
  H        -7.4579256973       11.3537428708       25.9644266871
  C        -8.5350492518        9.9503370356       24.7831358868
  H        -2.3916463531       17.4078814614       35.0532807051
  C        -3.0518856492       16.0690662270       36.3471137236
  H         5.1368386993        6.7700102806       10.8227244865
  H         4.8513617069        5.3062793656       11.6965941057
  C         3.1963612129        6.2226733846       10.5705169777
  H         4.7312445205        7.0061682575       30.2601858531
  H         5.1275166342        6.1270681256       31.7823308106
  C         6.8349787675        6.7536982616       30.7755621972
  H        -8.7989872992       10.4335420187       23.8582352117
  H        -8.2887588364        8.9265683514       24.5566223869
  C        -9.6517380862       10.0892388232       25.7160546280
  S        -3.5189157862       14.5052075265       36.9415784961
  C        -3.2765856051       17.2352502345       37.3285377240
  H         3.2356827271        7.0753937080        9.8606471878
  H         3.2194370620        5.3767655938        9.9504778761
  H         2.2244902117        6.1538035881       11.0879512612
  H         7.2840443441        7.8129630202       30.7982748925
  H         7.0133358558        6.4051818372       29.7057020243
  H         7.3616473568        6.1349119192       31.4360949715
  H        -9.6679695873       11.0507021770       26.3101332886
  H        -9.7231058538        9.2488268532       26.4222626861
  H       -10.7073391638        9.9115738715       25.2712642032
  C        -4.0663205816       15.3446064268       38.3753094024
  N        -3.8056717462       16.6960057588       38.4329233256
  O        -2.9204295769       18.3983215559       37.1812286885
  S        -4.5777542739       14.5942338679       39.8806475349
  C        -3.8648386602       17.5762363445       39.5854876478
  H        -4.2097896422       18.5909180412       39.3378045169
  H        -4.5758971157       17.2353041088       40.3610830874
  C        -2.6293877490       17.8301073637       40.3305591371
  H        -2.3486997571       16.9180929675       40.8668300618
  H        -1.8151259651       18.0804222443       39.7209515394
  H        -2.7512280180       18.6095858097       41.0526558370
