352
i=
  H         3.1278367122        3.7264928573       12.9286100743
  C         3.4717399074        2.7547808265       12.8232010736
  H         2.9670416847        2.1912379610       13.5370311677
  C         3.0807311752        2.3424835521       11.3818277724
  C         4.9733889457        2.7159059814       13.2013820138
  C         3.9302865102        2.9115113335       10.1670261145
  H         2.0198952886        2.5996552523       11.3068001296
  H         3.1580519313        1.2256914618       11.2778731942
  H         5.1000561590        3.4037819319       14.0551236901
  H         5.5879698288        2.9230656318       12.3546679749
  H         5.2642454670        1.7321458069       13.5188341812
  C         4.7106915436        1.7185909813        9.6207032435
  H         3.2983697474        3.3688707481        9.4215171052
  H         4.6367637791        3.6482198105       10.6013035152
  C         5.4810142951        1.8563971899        8.3510032080
  H         4.1184652820        0.8184461218        9.4804484457
  H         5.4582018416        1.4842487522       10.3797692512
  C         6.7764530777        2.7159644512        8.5445286885
  H         4.9518391107        2.3980425924        7.5895867492
  H         5.7616018382        0.9018759499        7.9044187370
  C         8.1041640719        2.0455124855        8.8073079121
  H         6.9605948074        3.1384611422        7.5420492918
  H         6.6407236899        3.4421487740        9.2130674877
  C         9.2869165387        2.9393300761        9.0800232327
  H         8.3222425193        1.3457470373        8.0051605480
  H         7.9701503060        1.3744339639        9.6764845505
  C         9.0183098264        4.2847970722        9.7338119699
  C         9.7251197367        3.6410606644        7.8016817030
  C        10.4577464574        2.2327200862        9.8403459811
  C         9.2138686655        5.3406815976        8.8784501737
  C         8.5732903982        4.6222434872       10.9886967565
  C         9.7153055890        4.9727010371        7.6613161178
  C        10.2749338842        3.0073118119        6.7329877842
  H        10.0734176491        1.8769296806       10.7769308817
  H        10.6993060213        1.3228753969        9.1821221042
  C        11.7376124239        3.0485758182       10.0645352319
  S         8.8239172488        6.8140558028        9.6678994441
  C         8.3215699125        5.9873436526       11.1026653515
  H         8.3792549573        3.8100229997       11.6706978372
  C        10.0814676588        5.6110534919        6.5258867589
  H        10.2542084255        1.9583601609        6.7582089106
  C        10.6793915624        3.6327044037        5.6231181113
  H        11.5570622417        4.0495357746       10.4006173522
  H        12.1195296326        3.0150210669        9.0832777997
  C        12.5591834479        2.3044061255       11.1206191230
  C         7.9502472128        6.6974917661       12.3609532713
  C        10.6280628884        4.9447301400        5.4494172498
  H        10.0118330667        6.6854702725        6.5134257308
  C        11.0855234094        3.1494970618        4.3779316701
  H        13.5515213618        2.8145250868       11.1496229049
  H        12.8099148165        1.2957793016       10.8158430296
  C        12.0607773197        2.3189526362       12.6334136938
  C         8.0273857330        8.1001644992       12.6012420476
  C         7.5015055521        5.8114275228       13.5134898619
  C        11.1266149802        5.5089041887        4.1719931049
  C        11.3412007216        4.1351276232        3.4816487484
  S        11.3872260441        1.5782834577        3.8512736868
  H        11.4698422875        3.1623977813       12.8851551596
  H        11.3361907029        1.4959976936       12.7586496321
  C        13.1798497964        2.2343039804       13.6539420852
  N         8.4526114037        8.9697324259       11.6987764841
  C         7.6958508654        8.6209390052       13.8429449598
  C         7.2860138942        6.3354633668       14.7583537239
  H         7.3228380788        4.8068210537       13.3878566504
  C        12.4445327659        6.2856119592        4.3681635992
  C        10.0645954949        6.3487583948        3.4760829852
  C        11.7412828250        3.5864488666        2.2112660997
  C        11.7979215792        2.1960269250        2.3045484651
  H        13.9435406146        2.9697571502       13.4877585035
  H        13.6700015759        1.2783594048       13.3994930143
  C        12.6881003843        2.1591870751       15.1284454378
  S         8.4497416101       10.4600033564       12.4320163284
  N         7.9376332880        9.9757832041       13.8320429187
  C         7.3790382205        7.8008718075       14.9911869440
  H         6.9502189094        5.7236649942       15.6279085437
  H        12.2176935137        7.2493984926        4.8398656212
  H        12.7609490887        6.5930553902        3.3740953141
  C        13.5822692290        5.5613861315        4.9981767930
  H         9.8784665389        7.0696249140        4.2810382854
  H        10.3767229395        6.6962036840        2.5177404428
  C         8.7378196940        5.6706818680        3.1996857059
  H        11.8817251765        4.2585663904        1.3993088552
  C        12.0649848555        1.3301794795        1.1123993292
  H        11.8160111120        2.7857450953       15.2053787340
  H        12.3784525491        1.1352635371       15.3936587016
  C        13.8276217355        2.4334925560       16.1097177420
  C         7.0445605242        8.4688978731       16.2097969227
  H        13.2526593199        5.0794732087        5.8672701759
  H        13.9211015502        4.7363026224        4.3783115826
  C        14.7284728052        6.4745743743        5.3193440322
  H         8.3319961222        5.4088134596        4.1681410751
  H         8.8604300732        4.7889390678        2.5943077039
  C         7.5831676515        6.5808049780        2.5841716747
  C        12.0373536811       -0.0767957078        1.0453395169
  C        12.3133090361        1.9515953033       -0.2187439047
  H        14.4109953126        3.3408489667       15.8037210112
  H        14.5660418269        1.6427122882       16.1004396942
  C        13.3337931632        2.6305866826       17.5514727719
  H         7.2310185930        9.5492599617       16.1733041687
  C         6.7774156415        8.0537722256       17.4824983135
  H        14.3625907123        7.3296555044        5.9070240758
  H        15.2665894880        6.8615466424        4.4631947193
  C        15.7172769632        5.6535753484        6.1055773299
  H         7.0803079456        7.1492346083        3.3519512471
  H         7.9294821363        7.3038032495        1.7885409809
  C         6.5083356031        5.6665799906        1.9533993375
  N        11.8819435643       -0.8323551741        2.2573003110
  C        12.1572417134       -0.9038926712       -0.0593272143
  C        12.5620806601        1.1739576949       -1.3320349609
  H        12.3829406790        2.9933427796       -0.3612867011
  H        14.0918385817        2.3520461356       18.3422974249
  H        12.3732652312        2.0850720258       17.8030723509
  H        13.0590311362        3.6877586312       17.6334601893
  S         6.3876344823        6.4815434716       18.0253484722
  C         6.6459062323        9.1067107586       18.5129522799
  H        15.2837799194        5.3186489920        7.0323595713
  H        15.9395149717        4.7161394367        5.5904140961
  C        17.0220976784        6.3160422410        6.4144999480
  H         5.9828265172        4.9727010669        2.6153818906
  H         7.0095782578        4.9018024724        1.3333198918
  C         5.4828009762        6.4276477218        1.1216613634
  S        11.7962552819       -2.3998674090        1.8324401821
  N        11.9333241669       -2.2552347996        0.1817797280
  C        12.4365103919       -0.3463033359       -1.3811752533
  H        12.7290528214        1.7676886651       -2.2277136185
  C         6.0872206436        7.2255178776       19.5847665553
  N         6.1826854073        8.5760124243       19.6482545113
  O         6.8433328006       10.3453380429       18.3761747296
  H        17.3661706595        7.0529010136        5.6325465211
  H        16.9332225562        6.8780201086        7.3519685964
  C        18.0487550099        5.2836638726        6.7076107284
  H         6.0623641784        6.8899022775        0.3128548429
  H         4.7727277653        5.7790585548        0.5537581562
  C         4.7305377144        7.4673203083        1.9689772106
  C        12.5246907787       -1.1609324156       -2.5365541204
  S         5.7539927569        6.3835330947       21.0880470805
  C         6.1394730585        9.4243596922       20.8424416325
  H        17.6505894605        4.4992384767        7.4582704716
  H        18.2452041015        4.7323301444        5.8514379702
  C        19.3978196968        5.9298300217        7.2406515562
  H         5.3865972324        8.0922607050        2.6931717174
  H         4.0806285007        7.0013859115        2.6852386395
  C         3.8005635386        8.3279056631        1.1149909532
  H        12.2190858749       -2.1540727489       -2.3098339682
  C        13.0388805086       -0.9359148861       -3.8128255047
  H         5.4748927349        9.0050077869       21.5642338034
  H         5.7187181384       10.4529595241       20.6819908927
  C         7.5318974069        9.5060893865       21.3795307710
  H        19.7329977353        5.3302456863        8.0565212272
  H        19.1248189057        6.9122930831        7.6525877368
  C        20.4419405731        5.9145802020        6.1177640461
  H         3.8235353300        7.9630665455        0.1103805424
  H         2.7201635895        8.1591721297        1.3965765052
  C         4.0668704418        9.7377739026        1.0748517109
  S        13.5566058954        0.5584530483       -4.4055283837
  C        13.2246190746       -2.1226395624       -4.6718721458
  H         7.9191112812       10.4666576776       21.0381854335
  H         8.0457209547        8.6679650826       20.9661083879
  H         7.6517311988        9.3531545967       22.4916277204
  H        20.0712519842        6.4513508000        5.2102726560
  H        21.3774516733        6.3385963625        6.4830090616
  H        20.5993253655        4.8195210595        5.9667665829
  H         3.4995318703       10.1534034630        1.9187796392
  H         5.0923074329       10.0379879765        1.1505830837
  H         3.6263355932       10.1532317002        0.1779128331
  C        14.0813619409       -0.3149027706       -5.8254498331
  N        13.9199392367       -1.6639122900       -5.7666365340
  O        12.9120582209       -3.2784563429       -4.3295498413
  S        14.9250674084        0.2913775372       -7.2931980171
  C        14.1377974778       -2.5063577396       -6.9381030038
  H        14.1944576181       -3.5312243383       -6.5017921106
  H        15.1014828889       -2.2935763153       -7.4276285811
  C        12.9219723135       -2.3142297708       -7.8624405221
  H        12.4080639914       -3.2802772234       -7.9746586069
  H        13.1605931449       -1.9649982504       -8.8843356026
  H        12.0572610685       -1.6969479127       -7.5103333234
  H        -1.2791491052       14.2430659326       16.7274444149
  C        -2.3379920387       14.5202942460       16.7057184409
  H        -2.4630726105       15.5046388298       16.2869193374
  C        -2.8115243797       14.4645619490       18.2251212409
  C        -2.9490905058       13.6134780735       15.6150927809
  C        -2.5088928371       13.0909629345       18.8023134909
  H        -2.2696540723       15.3230092975       18.7244319597
  H        -3.8543594918       14.5498613605       18.4292865999
  H        -2.5579455961       12.6058179222       15.5380571354
  H        -4.0266264616       13.6398871852       15.6176935119
  H        -2.5666370575       14.2407551806       14.7957303359
  C        -1.4651483450       13.1235789776       19.8475170441
  H        -2.2841220685       12.4534217244       18.0131802531
  H        -3.4773862521       12.7963067055       19.0912493709
  C        -2.0883197207       13.2629973483       21.2093585304
  H        -0.8538310657       12.2097366837       19.7345058261
  H        -0.8105975753       13.9940760574       19.7013375901
  C        -1.0688701277       12.9392432599       22.3339229931
  H        -2.9928717889       12.6428116810       21.3026940634
  H        -2.4905270065       14.3073559779       21.3231383767
  C         0.0838362112       13.9158713811       22.6772891927
  H        -1.6623154942       12.8969923417       23.2412690906
  H        -0.6825038507       11.8988485720       22.0917228385
  C         1.2674055844       13.3081856035       23.3960824106
  H         0.5239626895       14.1808811671       21.6755346427
  H        -0.1545116147       14.8640398005       23.1780342794
  C         1.7240721746       12.0499581180       22.6896117166
  C         0.8583458834       12.5896704229       24.6242255979
  C         2.4940349328       14.2751396007       23.6570700079
  C         1.4387041948       10.9213683399       23.4361250646
  C         2.2536855013       11.7024951483       21.4281914319
  C         0.9157400308       11.2465570047       24.6551073503
  C         0.2440236404       13.2024042215       25.7263419024
  H         2.6013757590       14.9445158568       22.7908460612
  H         2.1749911479       14.9340953253       24.4555779959
  C         3.7466487860       13.4606939510       23.9387671217
  S         1.8991470142        9.3724910739       22.6888481363
  C         2.4389048834       10.3317015516       21.3241231171
  H         2.4631895029       12.4536159650       20.6748898782
  C         0.5160872559       10.5537315121       25.7722918076
  H         0.0770311996       14.2584634571       25.7194591828
  C        -0.1472804192       12.5169738734       26.8133407150
  H         4.0306965741       12.8129443470       23.1178103148
  H         3.5363663701       12.8160238320       24.7101887254
  C         4.9813929720       14.2830715465       24.3418033088
  C         2.9746834901        9.6254683538       20.1842494374
  C        -0.0670497125       11.1792779750       26.8703601902
  H         0.7304616579        9.4918219351       25.9236846177
  C        -0.5889628962       12.9047304477       28.0554681014
  H         5.6751871116       13.6645176544       24.8368570146
  H         4.6764676645       15.0669380734       25.0975099594
  C         5.7123290333       14.9781416631       23.1050297275
  C         2.9394614219        8.2149893943       19.9541186858
  C         3.4318100811       10.4808592128       18.9973449486
  C        -0.5888068979       10.5250325182       28.1248815757
  C        -0.7735290297       11.8500896445       28.8741484806
  S        -0.8331645008       14.4285367711       28.8347543648
  H         6.5802259834       15.6205704992       23.2811018328
  H         5.0042828205       15.6323297478       22.6100064873
  C         6.2962795678       13.9405137876       22.0811220821
  N         2.6659423429        7.2170209250       20.8917886654
  C         3.0485590105        7.7596663028       18.6486152908
  C         3.7633912887        9.9195314947       17.7896590305
  H         3.6119390791       11.5864555195       19.1598733688
  C         0.5668032767        9.6682191853       28.7813293245
  C        -1.8263885034        9.7462779991       27.8339163226
  C        -0.9928880372       12.2442983954       30.2290209982
  C        -1.1153251909       13.6180012169       30.3475652242
  H         7.2618091187       14.2554951110       21.9790013916
  H         6.4647480518       12.9730198285       22.5372855296
  C         5.6476925943       13.7819291371       20.6836475151
  S         2.5404868499        5.8468415164       20.0692438606
  N         2.6977025604        6.3880521590       18.5640328323
  C         3.4982651844        8.4595125763       17.5053490607
  H         4.2620634986       10.5174247118       16.9851984916
  H         0.7375950007        8.8703053052       28.0189249775
  H         0.2422329635        9.3099644711       29.7169027549
  C         1.8757522007       10.3932162281       29.1588020896
  H        -1.6367674277        9.0202058284       27.0434548094
  H        -2.1509708254        9.2001141695       28.7575055487
  C        -2.9285137182       10.5452722975       27.1998990964
  H        -1.0417813732       11.5011938900       30.9585893797
  C        -1.5510331657       14.3917846030       31.5654449999
  H         5.3377857518       14.8424238588       20.3866783389
  H         4.9161845821       13.0462146535       20.7879396116
  C         6.5804127936       13.0716733208       19.7038165875
  C         3.7571842411        7.7310711788       16.3031849763
  H         2.3064718337       10.6486332798       28.1924086326
  H         1.6153818174       11.2420759556       29.7032966226
  C         2.7976915494        9.4311804680       29.9831273795
  H        -2.7847856702       10.6921584927       26.0679000468
  H        -2.9948609336       11.5301765494       27.5349759913
  C        -4.2099017605        9.7525591438       27.2631182983
  C        -1.5954622633       15.7965452015       31.7226358279
  C        -1.6604879173       13.6220449221       32.8205419101
  H         7.1148387765       12.3053348743       20.2162016664
  H         6.0197582918       12.6471550441       18.8308483941
  C         7.6226338936       13.9033119727       18.9788114520
  H         3.8957030786        6.6456377342       16.4886046971
  C         3.9313346295        8.1438520825       15.0099708053
  H         3.2447815141        8.6921960947       29.2164056698
  H         2.1498821426        8.8907037131       30.6997320256
  C         3.7670511101       10.2584898121       30.8826970031
  H        -4.1150372701        8.8846634970       26.5673068169
  H        -4.3217150459        9.4424178864       28.3341887393
  C        -5.4345277453       10.5866075379       26.9586116931
  N        -1.1689306707       16.7255127126       30.7652168765
  C        -1.8305738736       16.4059128763       32.9411825393
  C        -1.8774832370       14.2192650085       34.0729826912
  H        -1.5951749764       12.5092200069       32.8652766091
  H         7.0740479716       14.5325692881       18.3558726909
  H         8.1868534357       14.5700744673       19.6870593177
  H         8.3009701768       13.2901195902       18.3221098092
  S         4.1228019410        9.7216339761       14.4972117529
  C         4.2596759874        7.1026344201       14.0486683730
  H         4.0211861208       11.2464706352       30.3959764735
  H         3.3516287117       10.4858639647       31.8928962804
  C         5.1687028131        9.6275431708       30.9367761758
  H        -5.3354180620       11.5877552290       27.4155843909
  H        -6.2766143683       10.1436965643       27.4223893435
  C        -5.7175251563       10.5761607824       25.4835052814
  S        -1.5234864869       18.2061609128       31.3845191688
  N        -1.9646504122       17.7591017258       32.8538863444
  C        -2.0432385867       15.6498386851       34.1487830458
  H        -1.8984426895       13.6088413335       34.9878755010
  C         4.4328757261        8.9984355951       12.8951457082
  N         4.4619464919        7.6290445174       12.8947719960
  O         4.4499262832        5.9395965879       14.2732137752
  H         5.8498523318       10.3335363852       31.3734236527
  H         5.4423350976        9.4444981104       29.8580206026
  C         5.1357386908        8.2263614800       31.5883741403
  H        -4.9063232065       10.9395385902       24.9653458369
  H        -5.8389260225        9.5767178110       25.0399152900
  C        -6.9037435721       11.4462159994       25.0549392790
  C        -2.4937433926       16.3957376114       35.3338587536
  S         4.8594908637        9.9929538721       11.4227558389
  C         4.5757314284        6.8804798720       11.6430059756
  H         4.3896101481        8.2021739984       32.3099580872
  H         4.7524213817        7.5949305757       30.8878606235
  C         6.4521491745        7.6669265896       31.9773235428
  H        -6.5090219662       12.1174847188       24.2742659526
  H        -7.1457892041       12.1601364981       25.7718795950
  C        -8.0530481002       10.6570343466       24.3951031066
  H        -2.2745881976       17.4888363551       35.3383883603
  C        -3.0438011118       15.9396449444       36.5312650892
  H         5.0745166206        7.4763207346       10.9483247000
  H         5.1665122827        5.9512789066       11.7712822585
  C         3.2130397939        6.4651682232       11.1146553214
  H         6.2399498868        6.9932586047       32.8440888616
  H         7.1817252846        8.4311934632       32.3171737217
  C         6.9206806624        6.8487424829       30.7737985408
  H        -8.4881596799       11.2955396043       23.6543151617
  H        -7.6339789549        9.8514655540       23.8303774254
  C        -9.0143253867       10.1376381507       25.3801702999
  S        -3.6253330903       14.3926707687       36.9056814149
  C        -3.1847369099       16.9354673745       37.6685495653
  H         3.3148676288        6.3731012067       10.0644495614
  H         2.9160007630        5.4725731753       11.4836334788
  H         2.3989024451        7.0752485536       11.3550786406
  H         6.9607689442        7.4159405571       29.8713602200
  H         6.2992605018        6.0477116255       30.4008400485
  H         7.8973329329        6.4167647770       30.9817988892
  H        -9.0836750328       10.8586942509       26.1480994829
  H        -8.6985458349        9.1454685960       25.7731148834
  H       -10.0091057343       10.0491973257       24.8811677106
  C        -4.1734847830       15.0995114794       38.4849243042
  N        -3.8304241002       16.3738855856       38.6989652219
  O        -2.7979436868       18.0911725552       37.6048359566
  S        -4.9520518192       14.2703710286       39.7990932195
  C        -3.9561282919       16.9341906854       39.9937993365
  H        -3.7401389437       18.0060871185       39.9538201576
  H        -4.9960347689       16.8800533751       40.3271171388
  C        -2.8239975636       16.4788589485       40.9665566737
  H        -2.8518683733       15.4325397658       41.0553252423
  H        -1.8800582581       16.7530404406       40.5493161365
  H        -2.9295817532       16.8705470359       41.9656216609
