352
i=
  H         5.1843104364        1.3320738000       12.7958019058
  C         4.6365364185        2.2399063895       13.0116080894
  H         5.3928852048        3.0285506058       13.0013765046
  C         3.6346554281        2.3390771597       11.8981952141
  C         4.0089936552        2.1570945190       14.4528878287
  C         4.3469949943        2.6729283889       10.6540201852
  H         3.0101417529        3.2234678577       12.1042142626
  H         3.1145044393        1.4155815498       12.0098145686
  H         3.7781837028        1.0792895817       14.6663599660
  H         3.2019446930        2.8192559061       14.6245538317
  H         4.7582912448        2.2809903723       15.2286221955
  C         4.7847293806        1.3715406139        9.9545346194
  H         3.6679658074        3.2871886148       10.1585682504
  H         5.2177137921        3.2794754592       10.9024294948
  C         5.3726511930        1.5235894780        8.5743691831
  H         3.9540729770        0.7489874124        9.7329511916
  H         5.4939943916        0.7567858748       10.5535316621
  C         6.6689345874        2.3452476704        8.5124003227
  H         4.5934567057        2.0298440382        7.9510744469
  H         5.5199025711        0.5663250664        8.0325510555
  C         7.9203439175        1.7393524297        9.1100246587
  H         6.7606277134        2.6263568611        7.4551245002
  H         6.3945842987        3.3022452563        9.0037698841
  C         9.1295562814        2.7086730439        9.3531236284
  H         8.2668352395        0.8232605154        8.5845927393
  H         7.5850234802        1.3210551299       10.0487550379
  C         8.7090145882        4.0107417966       10.0287810250
  C         9.5350301352        3.4202453521        8.0826531787
  C        10.2739066591        2.0572517761       10.0917657414
  C         8.9416055678        5.1089088785        9.2608683359
  C         8.1273509649        4.3403576020       11.2224009370
  C         9.4792305081        4.7805307606        7.9882106954
  C         9.9860633741        2.8736123907        6.8718304369
  H         9.8115681573        1.5130346034       10.8993739773
  H        10.7416349898        1.3431124265        9.4916142676
  C        11.3354850657        3.0247918205       10.4898830853
  S         8.5683029276        6.6339387329       10.0674433970
  C         8.0670239882        5.6902721107       11.4615494335
  H         7.7926020200        3.6115044542       11.9310964760
  C         9.9222688825        5.4937730610        6.8804919784
  H        10.1906255998        1.8002333099        6.8980824446
  C        10.3122113241        3.5552765101        5.6945442683
  H        10.9558209114        3.7656165647       11.1832556027
  H        11.7163324264        3.5332496782        9.6593483851
  C        12.5315748655        2.3986400922       11.2337266775
  C         7.6144570380        6.3314352141       12.7485493574
  C        10.3055007176        4.8720548550        5.6847039842
  H         9.9924382003        6.5814288920        6.9260729236
  C        10.8071362911        3.1388583697        4.5005391255
  H        13.3634570299        3.0934694045       11.1299366197
  H        12.9077895098        1.5084834898       10.7079987683
  C        12.1300902291        2.1133402504       12.7033658027
  C         7.6963362982        7.7301287290       13.0358455802
  C         7.1653550312        5.4894850851       13.9057337311
  C        10.7658798561        5.5722026550        4.4415873893
  C        10.9895406572        4.2253915313        3.6547684998
  S        11.0108919823        1.6313742168        3.6818802836
  H        11.6068525221        2.9851471140       13.1133724569
  H        11.4692991521        1.1863255989       12.8406687714
  C        13.3734359318        1.9895443905       13.5985330444
  N         8.1409998755        8.6456004187       12.1489633813
  C         7.4310564720        8.3155810803       14.2278980019
  C         6.8649404517        6.0381046552       15.1514952754
  H         6.9247939884        4.4672723284       13.7625319618
  C        12.1242448163        6.2820841100        4.6607128081
  C         9.7092171521        6.5391185186        3.8086937632
  C        11.2805229098        3.8832789317        2.3499239981
  C        11.4551545403        2.5263617990        2.2054643532
  H        13.9628366928        2.9648028603       13.7258071326
  H        14.0493218949        1.2801560277       13.0940197991
  C        13.1011771914        1.2839825454       14.9193768944
  S         7.9580668660       10.1150442837       12.7729767788
  N         7.4180855159        9.7173297070       14.2635649565
  C         7.0026754023        7.5189821988       15.4047714853
  H         6.6202051547        5.3197535848       15.9324101468
  H        11.9411990287        7.0165169757        5.4423406332
  H        12.5105924469        6.8721680107        3.8121081112
  C        13.1494845328        5.3326793360        5.1376524047
  H         9.2969343181        7.3146849401        4.4757425847
  H        10.1419810216        7.3124038770        3.1810945089
  C         8.5107259127        5.7242105933        3.1446982063
  H        11.2581724141        4.6911114677        1.6222975680
  C        11.8419006768        1.7445366843        1.0061554219
  H        12.7320557094        0.3140076771       14.6317168655
  H        14.0457466670        1.0737568894       15.3356194699
  C        12.3915560125        2.2227733778       15.9230659957
  C         6.7961431910        8.2033349110       16.7243299991
  H        13.0470124597        4.8572796086        6.0045273603
  H        13.4693344384        4.6970919208        4.3183677903
  C        14.3642792979        6.2680065177        5.4694599546
  H         8.1546275676        4.9060175660        3.7262118669
  H         8.9676971426        5.4399794020        2.1821429909
  C         7.3389621090        6.6230183583        2.9016803798
  C        11.9041625801        0.3421073417        0.8935701526
  C        12.1415925506        2.5429342081       -0.2190560394
  H        11.3315425679        2.4224765582       15.5424502325
  H        12.9226554101        3.1926267253       16.0151157222
  C        12.1794145331        1.7196409459       17.3330652692
  H         7.2466267512        9.1537302042       16.6949188040
  C         6.4120340423        7.7289315278       18.0032715601
  H        14.1502172546        6.9943556402        6.2519656565
  H        14.5860950388        6.8719200310        4.6599657915
  C        15.7050409168        5.6077591253        5.8096375759
  H         7.3167431172        7.3885111844        3.7334980759
  H         7.5584918786        7.2614776052        2.0383201122
  C         6.0039510682        5.8760159204        2.7578929026
  N        11.6874012875       -0.5779687736        1.8610561766
  C        12.0728077543       -0.3079268213       -0.3191579784
  C        12.4470821395        1.8273942047       -1.4182414417
  H        12.1187796423        3.6070679129       -0.1042657951
  H        11.3937503903        0.8929137792       17.2313404324
  H        11.7703354248        2.4566167701       17.9972434568
  H        13.0671412529        1.1988006766       17.7634752138
  S         5.9472833123        6.1474717863       18.4107459073
  C         6.4732274428        8.6611598828       19.0903562650
  H        16.0618682802        4.8831759251        5.0726703954
  H        16.5310260057        6.3208264961        5.7822651713
  C        15.6774850489        4.9999380888        7.2082518537
  H         5.7666631122        5.5443742797        3.7633109740
  H         6.2332093693        4.8978772932        2.2712001403
  C         4.8150535112        6.6119048236        2.1281233267
  S        11.6694621478       -2.0757109014        1.3126478134
  N        12.0993826947       -1.7429718515       -0.2104289514
  C        12.4095749493        0.3662666432       -1.4804140848
  H        12.5481387697        2.3723673797       -2.3692867476
  C         5.8759775600        6.7147014490       20.0352360994
  N         6.0625207980        8.0790233922       20.1948510677
  O         6.6632487430        9.8506617786       18.9610532106
  H        15.6205266825        5.8450258076        7.8659025396
  H        14.8953239207        4.3488831013        7.4352531472
  C        17.0740605447        4.3331070072        7.4940386624
  H         4.9347538795        6.5087384104        1.0145053558
  H         3.9061127425        6.1386053747        2.4288971522
  C         4.7393644994        8.0373712636        2.5532491192
  C        12.6530318947       -0.3824828141       -2.6705686990
  S         5.5763501980        5.6319313849       21.3657885671
  C         5.9170118365        8.7793565187       21.5125963352
  H        17.0815322518        3.7981427063        8.4148011056
  H        17.2930180989        3.5874416847        6.6514788199
  C        18.2644221077        5.3515129479        7.5662303899
  H         5.5627285683        8.6523527109        2.0639232091
  H         5.0016448652        8.2521830111        3.6578979779
  C         3.5565050731        8.8500473039        1.9761529745
  H        12.4524813364       -1.3850146577       -2.6439663033
  C        13.1875420495       -0.1414974142       -3.9153904374
  H         5.0822148627        8.3434614037       22.0607464227
  H         5.7720485273        9.8437009267       21.3502196646
  C         7.2306101021        8.6407036312       22.2306408820
  H        18.6198207408        5.5627998354        8.5730662186
  H        17.9555137758        6.3527289017        7.2019343256
  C        19.4706179771        4.9076288640        6.6890493346
  H         3.4914655666        8.5069334948        0.9497910344
  H         2.6132454210        8.6401702112        2.5199512973
  C         3.6673528365       10.3900146648        1.9435073248
  S        13.7702375669        1.3776705548       -4.4972410788
  C        13.2800725737       -1.2809519031       -4.8720185211
  H         7.1440514340        8.0486614322       23.1207399060
  H         7.7462998934        9.6367909039       22.3847062060
  H         7.8892208497        8.0711569155       21.6279348384
  H        19.1271782715        4.1198567442        6.0013765988
  H        19.7851064830        5.7806409365        6.1496230356
  H        20.3350138648        4.4884425633        7.2929669664
  H         4.2186910734       10.8053267994        2.7473514283
  H         4.1260834946       10.6765978241        0.9645504819
  H         2.6839855935       10.8901848936        1.8891433143
  C        14.0813602311        0.5505580656       -6.0032408055
  N        13.8443451209       -0.8002874491       -6.0091472536
  O        12.6054676730       -2.3241989164       -4.7579789493
  S        14.7734901972        1.3614514908       -7.3377291441
  C        13.9192690633       -1.5603483314       -7.2049944825
  H        13.8543550276       -2.6159477906       -6.9597406470
  H        14.8708995758       -1.4809876156       -7.7722564728
  C        12.6493552826       -1.1660622265       -8.0593644209
  H        12.9248318929       -0.6510191394       -8.9244050817
  H        11.7864494622       -0.6864720253       -7.5299167295
  H        12.2128704630       -2.0664137930       -8.3998948550
  H        -2.9188074031       15.4998982358       16.5785433966
  C        -2.6558540326       14.3725606557       16.7053847091
  H        -3.5174838720       13.8391841319       17.1738270888
  C        -1.4376676659       14.4019617322       17.6840397970
  C        -2.3717130328       13.9378389438       15.2605737677
  C        -1.6961403700       14.7324174018       19.1349093282
  H        -0.9303667129       13.4215452838       17.5988046371
  H        -0.6358814143       15.1020927198       17.2969565210
  H        -1.6518679599       13.0948764473       15.2075497930
  H        -3.2274824551       13.4333690191       14.8340898059
  H        -2.2236374103       14.8107312620       14.6434974388
  C        -1.9067594715       13.4559777754       19.9656572250
  H        -2.5398743959       15.3882814896       19.1262487134
  H        -1.0001543414       15.4884363917       19.5200719943
  C        -2.2379732269       13.7130153178       21.4325525276
  H        -2.7740523241       12.8598107306       19.4969281623
  H        -1.0247984988       12.8138353458       19.9182343615
  C        -1.2804722207       13.0591783406       22.4066515931
  H        -3.1608875477       13.1964419721       21.4872649847
  H        -2.4281332613       14.7589796859       21.6377945293
  C         0.0061592874       13.8379193344       22.6071337394
  H        -1.7667315752       12.8797496150       23.4100924655
  H        -1.0114531201       12.0650067711       21.9785213729
  C         1.1375788630       13.0686069450       23.4042055357
  H         0.5252670081       13.9990305574       21.6740742560
  H        -0.1515178527       14.7983573010       23.1345891914
  C         1.5285475237       11.7515129635       22.7003788838
  C         0.6966248236       12.3699600812       24.6726966586
  C         2.3276178203       13.9633780339       23.5653803031
  C         1.2064212984       10.6319530685       23.4924084770
  C         2.0418161974       11.3682045240       21.4829857724
  C         0.7049947558       10.9719769131       24.7648210484
  C         0.1425717277       12.9269129168       25.8567936908
  H         2.8239394893       14.0647484193       22.6048221017
  H         2.0324481330       14.9811403483       23.9129218678
  C         3.4054635645       13.3048056556       24.3665543117
  S         1.6340831586        9.1631072766       22.7893842820
  C         2.1860909555        9.9927987385       21.3433406421
  H         2.2752591078       12.1475167527       20.7612323990
  C         0.2955654378       10.3264613258       25.9178773656
  H         0.1778464029       14.0314124748       25.7954856948
  C        -0.2276706989       12.3493890667       26.9952447279
  H         3.5193947962       12.2180945758       24.1180365979
  H         3.0860318283       13.2586193830       25.3975567898
  C         4.7502136659       14.0426352831       24.3863483870
  C         2.6444736135        9.2491302592       20.1339258559
  C        -0.2022345496       10.9971306046       27.0637008502
  H         0.2950593001        9.2521589657       25.9083096527
  C        -0.6569012054       12.8199308146       28.2408349130
  H         5.3560665402       13.7719722693       25.2315722081
  H         4.5411814895       15.0887018902       24.5972346394
  C         5.4738443101       14.0104840319       23.0409982576
  C         2.5600607988        7.8555728542       19.8665587436
  C         3.0449922523        9.9960878876       18.9363933218
  C        -0.6342352946       10.3983230091       28.3367632858
  C        -0.9125601988       11.7123165880       29.0618085595
  S        -0.8936604815       14.3396634215       29.0027791653
  H         6.2327423372       14.7684440885       23.1917848230
  H         4.8415819336       14.4273774595       22.3123936670
  C         5.9477935636       12.6583197955       22.5820222963
  N         2.1447088472        6.8734345718       20.8147921528
  C         2.7667645407        7.2765212178       18.6191687371
  C         3.2992758906        9.4133829252       17.6572146147
  H         3.1088721173       11.0298884816       19.0276736337
  C         0.3752080485        9.6886944491       29.3558506807
  C        -1.9215310962        9.6251111719       28.1454889004
  C        -1.1726971863       12.1339299727       30.3797113582
  C        -1.3181689442       13.5174316285       30.4693007372
  H         6.8349710122       12.3628391950       23.1351928649
  H         5.0445389994       12.0484334147       22.8616738772
  C         6.2129229980       12.5851089548       21.0612987228
  S         2.1351031952        5.3944524000       20.0741182345
  N         2.4487625381        5.8818862525       18.5387934227
  C         3.2656026617        7.9729740987       17.5065706462
  H         3.6980086197       10.0832438167       16.9095075496
  H         0.6668772781        8.6715089250       29.1293771960
  H        -0.1902763256        9.4626620997       30.2396118147
  C         1.6345326392       10.3839436415       29.7908175449
  H        -1.6918930273        8.8025941895       27.4256135748
  H        -2.1844326426        9.1172404776       29.0582404993
  C        -3.1309765734       10.4845726854       27.6732106615
  H        -1.3354379397       11.4104584624       31.1126394999
  C        -1.6490062204       14.3063665216       31.7013397457
  H         5.2492418659       12.3839433328       20.5328765984
  H         6.7617228576       11.6822125440       20.9433578940
  C         6.9278905992       13.7663468211       20.4080414883
  C         3.4123165524        7.2861695664       16.2466449195
  H         2.1300544871       10.9623430360       28.9209059572
  H         1.3887938334       11.1914052667       30.5130486576
  C         2.6906110296        9.3901044262       30.3832224295
  H        -2.9601848517       11.1354373885       26.8025094989
  H        -3.3432435331       11.2475333959       28.3585430542
  C        -4.4188837865        9.7783202863       27.2567177345
  C        -1.7145737597       15.7261143545       31.8484642399
  C        -1.9955120470       13.5381579032       32.9677838607
  H         6.3297229556       14.6469054892       20.1472592038
  H         7.7417425667       14.0741604872       20.9947428968
  C         7.4711555490       13.2191592389       19.0981597781
  H         3.4345708815        6.2898821840       16.2433611771
  C         3.5681675935        7.7874366498       14.9770914131
  H         2.7447874985        8.4793829059       29.8131542378
  H         2.2758932015        8.9852180441       31.3189844583
  C         4.1330922170        9.8555510369       30.5105814973
  H        -4.1942581514        8.7992113371       26.8199044602
  H        -4.9359686315        9.6026572122       28.2332606959
  C        -5.2722690943       10.6713784591       26.3579017673
  N        -1.6040317939       16.5810514859       30.8118237020
  C        -2.0205183966       16.3866197011       33.0213740682
  C        -2.2627036767       14.2146940540       34.1376271947
  H        -2.0979012390       12.4417247898       33.0389658296
  H         7.9302032834       14.0620850238       18.5728923532
  H         8.3195748945       12.5323432754       19.2772068629
  H         6.6248017151       12.8781088913       18.4911614769
  S         3.8308182827        9.4205137169       14.4997366079
  C         3.5909209089        6.8729699948       13.8058432957
  H         4.2938478902       10.5694219803       29.7594834766
  H         4.4088491451       10.2440148016       31.4809407864
  C         5.1375969464        8.7255658381       30.1248050104
  H        -4.8164687032       10.8861573439       25.4205283135
  H        -5.5843014226       11.6311315685       26.8657000353
  C        -6.5461242466        9.8948148562       25.9739608716
  S        -1.5732476699       18.1254846319       31.3269239798
  N        -1.9748987946       17.8344347592       32.8415773826
  C        -2.2175144267       15.6979278854       34.2159287368
  H        -2.3187497757       13.6708269428       35.1182175004
  C         4.1015454783        8.8048125172       12.8777362147
  N         3.9212734180        7.4933712367       12.7054756490
  O         3.4155564404        5.6447318841       13.9031713760
  H         6.1387756111        9.0490441035       29.9454408499
  H         4.8983323429        8.2802145039       29.1462250093
  C         5.2049465473        7.6331354635       31.1471458597
  H        -6.1995344786        9.1629555383       25.1121364575
  H        -7.0028503613        9.3199830501       26.8494501733
  C        -7.6372768826       10.8315639104       25.5273318189
  C        -2.4770895866       16.4624477122       35.3526132448
  S         4.4608399510        9.8100416649       11.4466466326
  C         3.9118462842        6.8377831313       11.4068072625
  H         5.7426215851        7.9991785731       31.9989554843
  H         4.2319134931        7.3386731915       31.5060628305
  C         5.7784256372        6.3657522600       30.5799626854
  H        -7.2054802460       11.4388277613       24.7914114163
  H        -8.0407897721       11.4027174773       26.3226744541
  C        -8.7153220753       10.0318138135       24.8045641345
  H        -2.1505056386       17.5038263869       35.3448076802
  C        -3.0619359532       16.1954581484       36.5940730802
  H         4.7388775345        7.2311000753       10.8183347291
  H         4.2777065368        5.7561479629       11.5689485387
  C         2.4772464040        6.7602927099       10.7819797188
  H         6.6557332261        6.4532584138       29.9671615543
  H         4.9221693856        6.1985447885       29.9564118125
  C         6.0717191497        5.2903302550       31.5966303721
  H        -8.9897331059       10.5806869792       23.9278797793
  H        -8.4152753928        9.1252901817       24.2581059300
  C        -9.8993437417        9.7477392177       25.7334770136
  S        -3.7396095683       14.6389741504       36.9954529396
  C        -3.1004762756       17.1914799675       37.6563764555
  H         2.3720666932        6.6402317890        9.7680702799
  H         1.8353900295        6.0637391612       11.2727153496
  H         1.8969929550        7.6641318794       11.0737895700
  H         6.7810487560        4.5343859329       31.1982469122
  H         5.2145888227        4.6916817350       31.8962938842
  H         6.5968919536        5.8082812253       32.4207843374
  H        -9.7169151752        8.9703214967       26.5231584033
  H       -10.7521575244        9.4266217532       25.1199890787
  H       -10.2277986092       10.7103670007       26.1668200775
  C        -4.0555223501       15.3419943161       38.5575208681
  N        -3.6470625822       16.5928249789       38.7013267848
  O        -2.6838329055       18.3596221550       37.5549874542
  S        -4.5665831349       14.4831938695       40.0007731822
  C        -3.7170843195       17.2819209598       40.0134960192
  H        -3.9852680176       18.3049030388       39.8434512401
  H        -4.5089162517       16.9408652171       40.7081911786
  C        -2.3327899330       17.2555751228       40.6949635152
  H        -2.4513221354       16.7226868916       41.6478087762
  H        -1.4277036335       16.8538943013       40.2222200184
  H        -2.0735451825       18.3413751077       40.8692169799
