352
i=
  H         4.3296760690        1.8496153735       12.3644523041
  C         3.6938258372        2.6789720076       12.5913426881
  H         4.4625943526        3.4881812792       12.6505140972
  C         2.8011490060        2.9517006694       11.3933333167
  C         2.9563971801        2.5318249095       13.9083671071
  C         3.6527355495        3.0106380657       10.1593599835
  H         2.3858959626        3.8866282556       11.5985337471
  H         1.9903414701        2.2266640920       11.2041513256
  H         3.6884544671        2.7495079710       14.7242016861
  H         2.4827553283        1.6291523634       14.1368424302
  H         2.1268746040        3.2210142277       14.0055639724
  C         4.2644228416        1.6621532746        9.5921263762
  H         2.9887892882        3.3735089162        9.3744411923
  H         4.3942116151        3.7151978582       10.3110568636
  C         5.0711584665        1.7302935322        8.2792349145
  H         3.4046376429        1.0470172557        9.5170640796
  H         4.9196739643        1.1530193108       10.2742517400
  C         6.3590142944        2.6477563912        8.3737615498
  H         4.4124209366        1.8549572973        7.3937856793
  H         5.2376717578        0.6756254090        8.0000415961
  C         7.6361544465        1.8881711514        8.9735528015
  H         6.6243907478        3.0125144776        7.3707727651
  H         6.0762125572        3.4926735230        9.0083183802
  C         8.7180548629        2.9591977262        9.1707719276
  H         7.9913489975        0.9994866713        8.4293340450
  H         7.4692020645        1.4362863804        9.9818417793
  C         8.2791824088        4.2186960093        9.8559999308
  C         9.1810308983        3.6502481215        7.9089349077
  C         9.8387128937        2.3210517711        9.9883009462
  C         8.5532894717        5.3089418925        9.0678137866
  C         7.7041651343        4.5658391852       11.1140969488
  C         9.0990320831        5.0088804893        7.8524502526
  C         9.6013190480        2.9727055337        6.7885709061
  H         9.4130499410        2.2212049987       10.9514578442
  H        10.1130587348        1.3178011220        9.7519614791
  C        11.1252508921        3.0623404532        9.9575909304
  S         8.1641667261        6.7475760779        9.7956486980
  C         7.6072124641        5.9030872855       11.1747263407
  H         7.3990605616        3.8184277518       11.8501958797
  C         9.5054422755        5.6351980601        6.7232033099
  H         9.5808119420        1.9257242888        6.8603028638
  C         9.9664676903        3.6365397823        5.6558343289
  H        10.9926390040        4.1493965530       10.1158482106
  H        11.5706518295        3.0241455735        8.9745608539
  C        12.1868540235        2.6302255041       10.9857176640
  C         7.3609231533        6.5550282266       12.5069508575
  C         9.9515924028        4.9715848242        5.5436033411
  H         9.2907592709        6.6757541229        6.7171741768
  C        10.3701024199        3.2137178747        4.3910488602
  H        13.1340971049        2.9746772278       10.7009282150
  H        12.2954303848        1.5383698709       10.9328274363
  C        11.8561618604        3.0288934748       12.4007226963
  C         7.4454018846        7.9378103561       12.7647022383
  C         6.8618279050        5.7469155129       13.6385317786
  C        10.4168941231        5.6669754652        4.3131873817
  C        10.6625562263        4.3025150117        3.5989800546
  S        10.6452512464        1.7393086315        3.6404645628
  H        12.3509801365        3.9340939023       12.7987235163
  H        10.9029658525        3.3921259304       12.5789671135
  C        12.1989979303        1.8896473538       13.4271679329
  N         7.9300909761        8.9151580183       11.9032490437
  C         7.2601911035        8.5122601926       14.0355958842
  C         6.6434202450        6.3018641823       14.9035799238
  H         6.6080645700        4.7107045679       13.4764305541
  C        11.7387078934        6.4912739517        4.6939409997
  C         9.2997335426        6.4749301805        3.5202278957
  C        11.0609354199        3.9196857547        2.2846877134
  C        11.0190496268        2.5582337115        2.1942930415
  H        13.2730442254        1.5640714143       13.3822502544
  H        11.6350152613        1.0416456014       13.3710621359
  C        12.0254217692        2.2577871596       14.8837303546
  S         8.0732688880       10.3335515224       12.6972732315
  N         7.5325352242        9.8582626142       14.1203047712
  C         6.8887640770        7.7807015979       15.2005675355
  H         6.4362998423        5.6036671659       15.6733656922
  H        11.5190855889        7.1080944300        5.5667880091
  H        11.9709246355        7.1844299087        4.0092530126
  C        12.9474261496        5.5972161722        4.8704126378
  H         8.9297367608        7.1978351746        4.2467998579
  H         9.9064843573        7.0398032201        2.8067767698
  C         8.1100481722        5.7704347285        2.8143753331
  H        11.3713803199        4.5308495054        1.4969327713
  C        11.3550071144        1.7248607613        0.8998543849
  H        12.2244727205        3.3229769331       15.0786239547
  H        10.9350468269        2.1088062481       15.1241250460
  C        12.8181102022        1.3350952165       15.8130447677
  C         6.6026815176        8.4760250004       16.4722862552
  H        12.7328531914        4.6502108246        5.3866092944
  H        13.2974446071        5.2638467851        3.8551675388
  C        14.0967158249        6.3642277348        5.5136571484
  H         7.6015452184        5.0157528317        3.4429092141
  H         8.5001975695        5.2796581423        1.9130645725
  C         6.8384158199        6.7370789215        2.6391722941
  C        11.5270752932        0.3448354543        0.8515135631
  C        11.4289698537        2.5028656819       -0.3942126529
  H        13.9153955726        1.3171834988       15.5898899491
  H        12.3157193136        0.4127564843       15.5969742178
  C        12.4955272729        1.6935695081       17.2524697547
  H         6.5825266884        9.5813669238       16.4193657676
  C         6.4550880688        8.0623030345       17.7994748604
  H        13.8182479920        6.6585035929        6.5064136408
  H        14.2390317689        7.2249435346        4.8996682068
  C        15.3877038416        5.5412913298        5.4173274684
  H         6.7210833156        7.2824176897        3.5565154507
  H         7.2900243664        7.4360033240        1.9142412600
  C         5.4674419219        6.1032814394        2.4294651762
  N        11.3997270705       -0.5991134190        1.8990200703
  C        11.9385384830       -0.2835322307       -0.3330327371
  C        11.7452489390        1.8377959354       -1.5615184268
  H        11.0300761077        3.5057223354       -0.4223821095
  H        12.8325728104        2.7042058454       17.5033828828
  H        13.0067119251        1.0068109829       17.8716289337
  H        11.4648277181        1.4920821407       17.4582716018
  S         6.2961055916        6.3692281486       18.3529999095
  C         6.2176037426        9.1060207191       18.8315817135
  H        15.3430916876        4.5342697248        5.8890120129
  H        15.6198756963        5.4440825545        4.3867887177
  C        16.5074026428        6.1759082826        6.2137592944
  H         5.1581055057        5.5699880157        3.3382261304
  H         5.5767002061        5.2084758494        1.7813007110
  C         4.4153585663        7.0641409514        1.8317171629
  S        11.7173391415       -2.1033849213        1.2694880237
  N        11.9405348940       -1.6894581158       -0.2620059620
  C        12.0728884286        0.4008537918       -1.5601935018
  H        11.6621949665        2.3450583395       -2.4826204171
  C         5.9236336173        7.1209973025       19.8977775099
  N         5.9284437788        8.4650635358       19.9893280603
  O         6.1942620137       10.3026374580       18.5729443946
  H        16.7519446721        7.0614600535        5.6846936770
  H        16.1828820268        6.5153628585        7.2506164620
  C        17.6165344147        5.1516934990        6.2602858422
  H         4.8413053328        7.4332188529        0.9425050595
  H         3.6303464207        6.4291576100        1.5367209043
  C         3.8391625386        7.9320271963        2.9102993965
  C        12.2214162294       -0.3427302719       -2.7533885713
  S         5.5347985684        6.2436727638       21.3712346808
  C         5.9865593991        9.2265094996       21.2480382831
  H        17.3752270318        4.2893295026        6.8201887419
  H        17.9754998990        4.6528156132        5.2941715492
  C        18.8074279384        5.7908123180        6.9772339677
  H         4.7073471748        8.3764752444        3.4606037375
  H         3.1781309297        7.3167907329        3.5719314733
  C         2.9951669087        9.0457441742        2.3794294715
  H        11.9388590031       -1.3782460405       -2.6932154884
  C        12.7773190341       -0.1066379057       -3.9630861090
  H         5.1451773647        8.9695179150       22.0199370694
  H         5.6572223007       10.1788816649       20.9880362225
  C         7.3921229986        9.2550412188       21.8152054388
  H        19.0838962564        5.3361164694        7.8490351232
  H        18.4987718117        6.8335365822        7.2207875304
  C        20.1044141213        5.9376574351        6.1530443433
  H         2.3759412418        8.6653596394        1.6075190015
  H         2.2874209921        9.3004911301        3.1435985434
  C         3.7553351223       10.1735658295        1.8578288950
  S        13.3816964199        1.3885727347       -4.4530382868
  C        12.7589696824       -1.2313599018       -4.9415831042
  H         8.0615511381        9.6491245382       21.1889586600
  H         7.7133182596        8.1751534904       22.0095803584
  H         7.5648929049        9.8247947273       22.6832842831
  H        20.7672457006        6.6438818594        6.6830587026
  H        20.5791214124        4.9841980835        5.8964053192
  H        19.8479531448        6.4587413799        5.2086142760
  H         3.0815373157       11.0693285085        1.9671316629
  H         4.5999314872       10.4739231084        2.4650647262
  H         3.9210147654       10.1047345063        0.8067011239
  C        13.6812792696        0.5900253983       -5.9086623296
  N        13.4874902982       -0.7527860273       -6.0238913430
  O        12.3355883485       -2.3672969975       -4.7849948613
  S        14.0784759635        1.3785860756       -7.4169148562
  C        13.5991203080       -1.5432714998       -7.2831865684
  H        13.7167197861       -2.6433169974       -7.0374482891
  H        14.5191325415       -1.4157425108       -7.8430907905
  C        12.3257007590       -1.3167798019       -8.0877024287
  H        12.1370861874       -2.0856597096       -8.8930330964
  H        12.3454844121       -0.3275257111       -8.6235729866
  H        11.4823260206       -1.2971946568       -7.3229416554
  H        -3.7636572676       13.1812376080       16.2580003663
  C        -2.7895340781       13.7122291790       16.1996822685
  H        -2.0180154148       13.1362831449       16.5607761432
  C        -2.8181763622       14.8093218728       17.2427424772
  C        -2.5613406167       14.1558874085       14.7588119341
  C        -3.1813961691       14.1552316249       18.5263544932
  H        -1.8886380494       15.3904156950       17.2221419595
  H        -3.5494160577       15.5320110677       16.9596327520
  H        -2.2405953802       13.3249590241       14.1687613857
  H        -3.5097196006       14.3730924702       14.4307648673
  H        -1.8944681574       15.0082958377       14.6473063722
  C        -2.0059300834       13.8952078779       19.4411461378
  H        -3.8197137151       13.3287370175       18.4585523962
  H        -3.6882917296       14.8782781027       19.1169772700
  C        -2.5156880402       13.6344700429       20.8204426867
  H        -1.4664334055       13.0581683908       19.0109577480
  H        -1.4148445478       14.8459775138       19.5459881877
  C        -1.3827421614       12.9615768200       21.5668978205
  H        -3.3453147041       12.9064417650       20.7225594166
  H        -2.8549483613       14.4977512287       21.3291841892
  C        -0.1686089646       13.8605578499       22.0850928033
  H        -1.8040266045       12.2473073704       22.2657873022
  H        -0.8556076859       12.3114839238       20.8941349811
  C         0.8707952819       13.1358735290       23.0111367223
  H         0.3491538245       14.2683965727       21.2791289965
  H        -0.5543593412       14.7689433779       22.6856635845
  C         1.3407538186       11.8156496557       22.3742203933
  C         0.3790741196       12.4913468167       24.2063275706
  C         2.1315244260       14.0073541862       23.3705914158
  C         1.1327723124       10.6926186374       23.2124400814
  C         1.9109067493       11.5147759416       21.0822918866
  C         0.5272265018       11.1535280656       24.3451599458
  C        -0.1111172982       13.0991699652       25.3050563112
  H         2.4674992553       14.3886792601       22.4602678949
  H         1.7780040257       14.8462358890       23.9836174975
  C         3.3117342181       13.3011515201       23.9738861158
  S         1.7267854682        9.2891419829       22.5094144020
  C         2.0946782719       10.1971496788       21.0176151747
  H         2.0919778044       12.2570221900       20.2996668176
  C         0.1144804410       10.5212057031       25.5138411403
  H        -0.0791790389       14.2034263540       25.2649800419
  C        -0.4233763916       12.4937721440       26.4719732678
  H         3.7961789270       12.4885097280       23.3843000676
  H         2.9500230999       12.8633184631       24.9460338001
  C         4.5306250875       14.2274217645       24.2969868243
  C         2.4774268695        9.5021409945       19.7283739278
  C        -0.2712534128       11.1501015231       26.6134049008
  H         0.2160405148        9.4603079261       25.6817672648
  C        -0.7549317487       12.8827474831       27.7204336121
  H         5.2420152493       13.6224208215       24.8217438171
  H         4.2183574123       14.9710748582       25.0374171132
  C         5.1322840084       14.8385843318       23.0401925853
  C         2.3723104125        8.1252197155       19.4518095383
  C         3.0196491959       10.2795798177       18.5734910077
  C        -0.5722939235       10.3960283014       27.9062441118
  C        -0.9238934712       11.7735015676       28.5713559644
  S        -1.1064790195       14.3733805713       28.4127004063
  H         5.8026659072       15.6709650717       23.3224623496
  H         4.4865113836       15.4858961022       22.4865598667
  C         5.9315536396       13.7550828466       22.2210633372
  N         2.0207671143        7.1875719768       20.3689618620
  C         2.6211893249        7.5763980250       18.1981391876
  C         3.1869666524        9.7552232387       17.3360184278
  H         3.4184866437       11.2939399610       18.7319737197
  C         0.6907964958        9.6920584305       28.4709003741
  C        -1.6492836939        9.3944842293       27.7918005470
  C        -1.3002845603       12.1767584121       29.8517617525
  C        -1.3456077744       13.5621797654       29.8972773771
  H         6.9561473510       14.1576402592       21.9965909108
  H         5.9542884545       12.7505920871       22.7612560880
  C         5.2893966103       13.5051110661       20.8273308615
  S         2.1068271471        5.7464920684       19.6626890748
  N         2.5208093443        6.1991055984       18.1407709808
  C         3.0265068282        8.2563561303       17.0700745602
  H         3.6766796092       10.3056365756       16.5854378352
  H         1.2671654476        9.1287688024       27.7223097206
  H         0.5665972354        8.9303397377       29.2276290308
  C         1.7911616906       10.6590483766       28.9020773762
  H        -1.3416578168        8.4706496327       27.3631294006
  H        -1.8904070123        9.1795593629       28.8555401203
  C        -2.8595145154       10.0148900812       27.1415924376
  H        -1.4076857487       11.5488455217       30.6460161646
  C        -1.5911626401       14.3343387952       31.1578928411
  H         4.3171850813       14.0305030651       20.7518454843
  H         5.0924420275       12.3901924805       20.7053836138
  C         6.2634162725       13.8266430371       19.6870547353
  C         3.3173710869        7.5961632048       15.8344284244
  H         2.1234746999       11.1788588504       28.0123525208
  H         1.4492877035       11.2312670639       29.7082195540
  C         2.9828004347        9.8845410224       29.4762720588
  H        -2.7052572537       10.3351144449       26.1212225378
  H        -3.2492044645       10.8453739782       27.7630660925
  C        -3.9593987473        8.9542211502       26.9511283382
  C        -1.7495284878       15.7510587819       31.2945434718
  C        -1.7857197095       13.4985326863       32.4001711566
  H         5.7254207009       13.5404505126       18.7901818850
  H         6.4300883685       14.8625842344       19.6639771642
  C         7.5953463408       13.0869658464       19.7865893481
  H         3.4102436346        6.5708655508       15.9625155799
  C         3.6600901392        8.0229493744       14.5802762811
  H         3.5241783513        9.3686622427       28.6904479642
  H         2.6715374098        9.0781172761       30.1562308461
  C         3.8429270268       10.9465964620       30.1607606617
  H        -3.6667323336        8.3740486441       26.0682101022
  H        -4.0601813510        8.2715768697       27.8187247450
  C        -5.4141831325        9.5150052535       26.8876810920
  N        -1.7725735415       16.7135427879       30.2845818739
  C        -1.9204485396       16.3272381354       32.5083300701
  C        -2.1331474685       14.1575745743       33.6315077763
  H        -1.9726466202       12.4504714697       32.3385950746
  H         8.3207435372       13.8476991905       20.0806875958
  H         7.6240218570       12.2337885167       20.5262251610
  H         7.9395611750       12.6886967605       18.8001985603
  S         3.9515297275        9.7041712896       14.1152521058
  C         3.6301045447        7.1064570751       13.3853105729
  H         3.9875228792       11.7424187462       29.4234343414
  H         3.3148473934       11.4760481291       30.9498310264
  C         5.2250298862       10.4057197091       30.5115473579
  H        -5.4838086594       10.3763951500       27.4833652576
  H        -6.0691897270        8.7648735569       27.3441021917
  C        -5.8743439342        9.8724713196       25.4434182416
  S        -1.8387272979       18.2216180467       30.9003349738
  N        -1.9859616660       17.7751512679       32.4700532753
  C        -2.1895090859       15.6465810788       33.6899159388
  H        -2.3746109832       13.5584634592       34.4584611937
  C         4.0047536379        9.1303361971       12.4117588089
  N         3.9085836091        7.7635925171       12.2653613957
  O         3.5595291591        5.8848951915       13.4812285283
  H         5.6789991551       11.1808162286       31.0728042514
  H         5.8410439747       10.3386159773       29.5565288957
  C         5.0498622930        9.1972687115       31.4321705207
  H        -5.1632954850       10.6223750012       25.0217759482
  H        -5.7616409616        8.9377591536       24.8578355875
  C        -7.3040525008       10.4630725953       25.3415580654
  C        -2.5583637414       16.3689147401       34.8325231307
  S         4.5491069111       10.0873273660       11.0249696948
  C         3.8795118524        7.1403857056       10.9200544330
  H         5.8328485610        9.1986664116       32.1566957743
  H         4.1110102260        9.4105459615       31.9422545874
  C         5.0363862249        7.8166099724       30.8101313636
  H        -7.4225278173       11.0992436321       24.4066397297
  H        -7.4883070058       11.1865463225       26.1730243777
  C        -8.3696084406        9.3781572904       25.1187215175
  H        -2.5240408112       17.4182373942       34.7535943006
  C        -3.0241552609       16.0522550913       36.0612683668
  H         4.7106919802        7.4072583903       10.3144602438
  H         3.9177648795        6.0629772279       10.9264387986
  C         2.5238593183        7.4854888929       10.2575532912
  H         5.3082025538        7.9874944146       29.8459275263
  H         4.0118547326        7.3846518636       30.7811392949
  C         6.0693856039        6.9172010609       31.4612348369
  H        -8.1264792873        8.8273465387       24.2376295992
  H        -8.2515293254        8.5583329739       25.8130854326
  C        -9.8029785140        9.7853641490       25.0093402596
  S        -3.3728289630       14.4827685808       36.6866969958
  C        -3.2644510911       17.1548885987       37.0100686691
  H         2.6516683023        8.0623144028        9.4201400934
  H         2.1715195451        6.5228561408        9.8567249438
  H         1.7330417566        7.8375303320       10.8643465660
  H         5.8895927324        6.8544800307       32.5349741109
  H         7.0280307555        7.3425921300       31.2475415253
  H         6.1831005614        5.9632231563       30.9363665112
  H       -10.0716300407       10.6606889690       25.6049108809
  H       -10.5553374875        9.0417734566       25.3624288047
  H       -10.0687462978       10.0873063363       24.0019450535
  C        -3.9150605589       15.3365622943       38.2018827390
  N        -3.8739381170       16.6769986244       38.1587171857
  O        -2.9105939808       18.3391159405       36.8656920087
  S        -4.6346202934       14.6399505876       39.7059063010
  C        -4.1445707137       17.6671601915       39.2272064823
  H        -4.4328278726       18.5688442315       38.8021163141
  H        -4.9987992763       17.3797962609       39.7821091039
  C        -2.9543964568       17.8058851500       40.2401318455
  H        -3.1245462910       18.6214905506       40.9560549059
  H        -2.8925028151       17.0628253260       40.9816160900
  H        -2.0005629749       17.7935166386       39.6872019416
