352
i=
  H         3.5045657354        3.8708522059       12.3427968296
  C         2.8690927879        2.9597260678       12.5425424356
  H         1.9614999430        3.1953628377       13.1798512002
  C         2.4920683317        2.1510861898       11.2745653289
  C         3.6979908407        2.2196274017       13.5772672194
  C         3.3073890449        2.5140813787        9.9987061247
  H         1.3987695318        2.3537720714       11.0536689809
  H         2.6509253002        1.1095070502       11.3360577388
  H         3.0829757755        1.5176540164       14.0752750378
  H         4.0358752529        2.9365084426       14.3427314763
  H         4.5890828270        1.6592957925       13.1397234127
  C         4.2400844352        1.3107653199        9.6620968350
  H         2.7309484464        2.8217101167        9.1420399438
  H         3.9285104476        3.4202704485       10.1623176747
  C         5.1676589618        1.5915921087        8.4257939786
  H         3.5830892158        0.5143825957        9.3893957739
  H         4.8125391240        1.0292328041       10.5153486229
  C         6.3729092034        2.4627105035        8.7575730570
  H         4.5835613319        2.0749849195        7.6310765246
  H         5.5132647068        0.6671379299        7.9812506099
  C         7.6568745052        1.7800494161        9.2925113013
  H         6.5564423361        3.1557465533        7.8796933208
  H         5.9527387320        2.9687691462        9.6505633754
  C         8.8842110083        2.7435716801        9.4888532119
  H         7.8469834626        0.9428686594        8.6512923301
  H         7.3864752278        1.3429264427       10.2743825041
  C         8.3552416342        4.0604396786       10.1443466733
  C         9.3309043791        3.5089364808        8.2595038140
  C        10.0390350114        2.0207050803       10.2139021485
  C         8.5785821801        5.1601155792        9.3507378547
  C         7.8489241538        4.4505850214       11.3821131314
  C         9.1307942031        4.8256160510        8.1622480842
  C         9.8903002468        2.9438801567        7.1184121751
  H         9.7353139228        1.5933672875       11.1892647646
  H        10.3337780529        1.1764861357        9.5685706328
  C        11.2541602095        2.8999243318       10.4847016408
  S         8.0337522720        6.6312241608       10.0260515060
  C         7.6546264694        5.8194788748       11.4980451077
  H         7.5352880366        3.7397382727       12.1019915968
  C         9.3981338254        5.4748661725        6.9719242147
  H         9.9393283121        1.8770258640        7.0540984049
  C        10.1433662882        3.5667425092        5.9334878835
  H        11.0835787125        3.8803046878       10.6553507140
  H        11.8255766780        2.9386751081        9.5502653094
  C        12.3038034817        2.2619643992       11.4050869154
  C         7.0702985008        6.4799607789       12.7013177773
  C         9.9217887959        4.9097427932        5.8134965314
  H         9.1074236177        6.5304563231        6.9855540767
  C        10.6520780542        3.2160274197        4.7011660178
  H        13.3231372581        2.7723563488       11.3082955758
  H        12.3093097507        1.1574592998       11.3127711943
  C        11.7189091360        2.4739792107       12.8489456959
  C         7.2134823217        7.8652299536       12.9341100777
  C         6.8026067940        5.6244903437       13.8696468611
  C        10.3351246915        5.5565328815        4.4937220901
  C        10.7256103589        4.2844077525        3.8653626583
  S        11.0598837038        1.6932075478        3.9869635344
  H        12.4160864689        3.2605368217       13.2675603537
  H        10.7162165013        2.8098842577       12.8034314343
  C        11.8413529953        1.4122135377       13.8819362621
  N         7.6709911650        8.7837954540       12.0006236735
  C         6.9433133772        8.4177532729       14.1396845984
  C         6.8209776962        6.1244384946       15.1283124962
  H         6.6468390673        4.6198722500       13.7832628475
  C        11.5985038833        6.4661693043        4.7356475464
  C         9.1419903492        6.3165806957        3.6902902260
  C        11.1171798657        3.8916485839        2.5613240833
  C        11.4029275262        2.5410653390        2.4919354974
  H        12.9264824105        1.1530375353       13.9988668330
  H        11.3157604694        0.5444547650       13.7156635968
  C        11.3208502074        1.7935598904       15.2439157437
  S         7.5183825057       10.2442158636       12.6173274862
  N         7.1459598826        9.8003821026       14.1077723322
  C         6.7291810590        7.6135490473       15.3020832567
  H         6.5685110356        5.5498175534       15.9698112566
  H        11.2641701200        7.0510360104        5.6254137160
  H        11.7226601690        7.1007455969        3.8668732226
  C        12.9077965504        5.7319176980        4.8823832238
  H         8.7492264361        7.1030652077        4.3070109075
  H         9.5636379039        6.7183004883        2.7929825283
  C         8.0150614096        5.3444720104        3.3123452145
  H        11.2230082523        4.6753786813        1.7885013240
  C        11.7829249972        1.8394605874        1.2491055257
  H        10.6196174388        2.6292667338       15.2536991322
  H        10.7278438691        0.9461183662       15.5902868789
  C        12.4946148039        2.0308615585       16.2195743244
  C         6.5750908505        8.2460902050       16.5944568063
  H        12.7569993664        5.0312882373        5.7121973776
  H        13.1898733567        5.1072154446        4.0515309727
  C        14.1198608239        6.5887772285        5.2003396584
  H         7.9058063691        4.5385065176        4.0472230182
  H         8.2938578821        4.7689065401        2.4293471510
  C         6.7156974533        6.0223146205        3.0025126433
  C        11.9016667840        0.4632878276        1.0545291960
  C        12.1486064025        2.6084944147        0.0475558461
  H        12.9321973134        2.9434380110       15.8911696281
  H        13.1937923877        1.2303213389       16.1762145471
  C        12.0505914453        2.2617073377       17.7184417678
  H         6.8093952162        9.2573991976       16.5544090416
  C         6.2496493904        7.6868204794       17.7646740904
  H        13.8981057388        7.4275016410        5.9300538800
  H        14.5031654148        7.0885107757        4.3105914731
  C        15.2486394721        5.6690792207        5.6910938870
  H         5.8966177036        5.3996578653        3.2561439309
  H         6.6775101101        6.8960226642        3.6644403332
  C         6.6757639890        6.4170869129        1.5170151427
  N        11.5058794477       -0.4509284256        2.0146571037
  C        12.2709081147       -0.1189023372       -0.0975910403
  C        12.3814231227        2.0134169892       -1.1397935717
  H        12.2232870639        3.7029651198        0.0750057992
  H        12.8297481827        2.1581317142       18.4978906288
  H        11.1879573650        1.6598303691       18.0910582473
  H        11.6107051845        3.2896568120       17.8214082519
  S         5.8298309634        6.1010484180       18.1989521048
  C         6.1948736355        8.6525073593       18.8416862730
  H        14.9205099695        5.0334543957        6.5258172465
  H        15.4782189942        4.9573616345        4.9055972934
  C        16.6427402975        6.4115036060        6.0799164365
  H         6.9833944762        5.5741095480        0.9233435492
  H         7.5000789275        7.0799501951        1.3778625486
  C         5.3875905614        7.1132655333        1.1688844148
  S        11.6830097201       -1.9701946107        1.3945091890
  N        12.2496871414       -1.5301702639       -0.0392684676
  C        12.4405014908        0.5250672166       -1.2931829576
  H        12.6839844037        2.6587153518       -1.9705146209
  C         5.7937692316        6.6533345973       19.8862439256
  N         5.7930239439        8.0044499801       19.9628575365
  O         6.4554966020        9.9065682324       18.6773914080
  H        17.0746809238        6.8950606554        5.1472150882
  H        16.4254346802        7.2706081962        6.7556304268
  C        17.6213092751        5.6059775603        6.9257499865
  H         5.2811626316        7.1327743541        0.0870873214
  H         4.5329371420        6.6010500939        1.5495779785
  C         5.3447337848        8.5721723181        1.6507912233
  C        12.7426500909       -0.2490068225       -2.4149627945
  S         5.1204909373        5.7228768909       21.2653586650
  C         5.7539664288        8.7526272064       21.2022405001
  H        17.0456110044        5.4937474152        7.8487019232
  H        17.8129386407        4.6982010405        6.3143659370
  C        18.9761329055        6.2344938161        7.4128378153
  H         6.2378394730        9.0878299817        1.5432573526
  H         5.2605569634        8.5158903818        2.7262970015
  C         4.0399563083        9.2374452184        0.9802096331
  H        12.4398258220       -1.2398324432       -2.3019226398
  C        13.1713030902        0.0243013255       -3.6953923064
  H         4.9698915886        8.4098509509       21.9705711291
  H         5.3291199062        9.7530290545       20.8870031116
  C         7.2177154562        8.9389411714       21.7773897378
  H        19.4495238508        5.5345758502        8.0563162246
  H        18.8434028546        7.2015191601        7.9611866752
  C        19.9571814405        6.5268521580        6.2330607135
  H         3.9912084975        8.9579488942       -0.0733245014
  H         3.1482263608        8.7511734219        1.3955907420
  C         4.1058500712       10.7048909482        0.9977434424
  S        13.7523679998        1.5848247763       -4.2562827921
  C        13.3287074805       -1.0718900050       -4.5916478724
  H         8.0126024819        8.8746456694       21.0722022931
  H         7.3813065100        8.3225101245       22.6086742455
  H         7.1665184189       10.0238101951       21.9776921208
  H        19.6441187384        7.3002534830        5.5596050439
  H        20.8941837371        6.8148190779        6.7665676731
  H        20.1411972992        5.7196011931        5.6055828749
  H         3.8203591250       11.0354395041        1.9561429288
  H         5.0087279574       11.2500371518        0.7073019758
  H         3.3392958121       11.0991897273        0.2628693055
  C        14.1347973464        0.7345362016       -5.7406393994
  N        13.7999271952       -0.6157004843       -5.7494150891
  O        12.8959879918       -2.1803750776       -4.4080345387
  S        15.0034410741        1.3221176197       -7.2027248411
  C        13.8721922099       -1.4928492470       -6.9389333569
  H        13.5020211387       -2.5158162857       -6.8230615890
  H        14.9013023523       -1.4971579340       -7.2721486968
  C        12.7814225900       -1.0207501536       -8.0086836695
  H        11.7384521906       -1.4195750485       -7.9779501401
  H        13.0109826257       -1.3137346479       -9.0136047606
  H        12.7433199352        0.0858946384       -8.0771122642
  H        -2.4778865203       12.7651792856       17.0813136934
  C        -2.9153277093       13.7602630006       16.7360970589
  H        -2.0659066261       14.2314312726       16.2849540533
  C        -3.4436558607       14.6011992306       17.8875916286
  C        -4.0362341990       13.3824871914       15.7031753623
  C        -3.7056770883       13.7043099594       19.1570864649
  H        -2.6069612571       15.3022403990       18.0800981826
  H        -4.3165546006       15.1971309139       17.5501215462
  H        -3.6563619093       12.8618155723       14.8809563964
  H        -4.7560278782       12.7149779071       16.1256770926
  H        -4.5323829406       14.2554935097       15.2883861586
  C        -2.5708031186       13.1245107952       19.9858064262
  H        -4.3624493985       12.8804351571       18.9143206779
  H        -4.3037007658       14.3037370249       19.7889468055
  C        -2.9133472770       13.0879442873       21.4844946102
  H        -2.3748238624       12.1405143051       19.5930801784
  H        -1.6231137509       13.6986399670       19.7261180349
  C        -1.8770891356       12.4098529799       22.3023860077
  H        -3.8200302326       12.5740963504       21.6295187630
  H        -3.1640410364       14.0549945922       21.8987847390
  C        -0.8076784131       13.4074760699       22.6390314963
  H        -2.3097100235       11.9330132569       23.1350099952
  H        -1.3328783001       11.6576454384       21.7268613500
  C         0.4510026843       12.7903490470       23.3312070659
  H        -0.4498677264       13.9054750080       21.7197057945
  H        -1.3170828898       14.2662920279       23.1792729222
  C         0.9618387707       11.4493556021       22.5969254538
  C         0.0839187006       12.0663736172       24.5751632005
  C         1.6634652095       13.7216459917       23.4044233772
  C         0.7152229266       10.3464543387       23.3869058338
  C         1.6051898361       11.1772551004       21.3668919660
  C         0.1840758348       10.6957479164       24.6766342894
  C        -0.1608835321       12.6639381469       25.8034991204
  H         1.7189804495       14.1038965984       22.3641901236
  H         1.4822859937       14.5870825045       23.9765376785
  C         3.0190637883       13.0138429594       23.8860321688
  S         1.2071887726        8.8406353666       22.6114768259
  C         1.6039719724        9.8026770989       21.2036293132
  H         1.8800020849       11.9534551747       20.7106245470
  C        -0.1176635381       10.0333500556       25.8692193964
  H        -0.2349586652       13.7465346203       25.7692809626
  C        -0.5512719017       12.0481300956       26.9961459855
  H         3.3279646866       12.3314152674       23.0660467116
  H         2.8472333805       12.3469021369       24.6771218765
  C         4.1787744113       13.8993250217       24.1960568338
  C         2.1806843332        9.2044034848       19.9349134319
  C        -0.5770905844       10.6696706137       27.0299587138
  H        -0.0494921917        8.9597663908       25.9336060674
  C        -0.9506212877       12.4277201972       28.2273308033
  H         4.8263529987       13.4904969792       24.9517984812
  H         3.6219197529       14.7589809299       24.6615892251
  C         5.0288347152       14.3334392346       23.0508985403
  C         2.3043368149        7.8522382798       19.6629248192
  C         2.4195815418       10.0955048826       18.7160325324
  C        -0.8838452344        9.9894594599       28.3691027531
  C        -1.1902090418       11.3458613170       29.0353210300
  S        -1.1017801133       13.9171022504       28.8829271074
  H         5.7716413224       15.0634544714       23.4235901752
  H         4.4273765339       14.9553538542       22.4072291521
  C         5.7425775295       13.2370365174       22.3119355278
  N         2.2777859746        6.8242487540       20.6319716130
  C         2.6480300027        7.3825830226       18.3848629877
  C         2.6504813289        9.5913787893       17.3819154647
  H         2.2395539424       11.1656162261       18.8532837271
  C         0.3502802995        9.2580650171       29.0987009851
  C        -2.1524630995        9.0436918044       28.2607962141
  C        -1.4677877148       11.8121570692       30.3079155910
  C        -1.5508321249       13.2120437175       30.4057422987
  H         6.8429933277       13.4309408262       22.3146540090
  H         5.4325293696       12.3634593054       22.8542795942
  C         5.3260280542       12.9181612293       20.8735712082
  S         2.3452309815        5.3670556734       19.8724612775
  N         2.7084641549        6.0320511754       18.4142707651
  C         2.8148031779        8.1136634629       17.1925797664
  H         2.8247969903       10.2755141179       16.5496591189
  H         0.5854902101        8.4260471201       28.4923848691
  H         0.0035334293        8.9556465671       30.1107830711
  C         1.6487896812       10.1376172729       29.2657881279
  H        -1.9292155284        8.3700604245       27.5046785680
  H        -2.2491505248        8.5840174012       29.1957329608
  C        -3.4456196582        9.7199032965       27.9763458856
  H        -1.5883489713       11.0121088650       31.0206498490
  C        -1.8681911790       13.9193683820       31.6310228298
  H         4.4289477377       13.4794670033       20.7080627415
  H         5.1082525769       11.8766453882       20.6807045214
  C         6.4842138692       13.2703449109       19.8605231074
  C         3.0733870354        7.4717165634       15.9479988710
  H         1.8036394756       10.4407685836       28.2524501808
  H         1.2879318508       10.9515378152       29.8920040123
  C         2.8623516551        9.3208622463       29.7124291796
  H        -3.4076734260       10.4612113091       27.1936386208
  H        -3.7219667458       10.1932995531       28.8767203096
  C        -4.4470738745        8.6254380365       27.5529671925
  C        -1.8225040473       15.3185627090       31.7572786291
  C        -2.1990758612       13.1783507261       32.8729316174
  H         6.8641919584       14.1830512978       20.1800432755
  H         7.3212316847       12.5546506191       20.0458047603
  C         5.8676345512       13.2237165233       18.4645790292
  H         3.1472350369        6.4032353096       15.9913122600
  C         3.3963943080        7.9682537848       14.7145123375
  H         3.1388342595        8.7899472545       28.8284050367
  H         2.5955313303        8.7029130158       30.5565422261
  C         4.0718341260       10.0596530169       30.1583970884
  H        -4.0032768202        8.1915681057       26.6331551668
  H        -4.5376477797        7.9235505067       28.3470182672
  C        -5.7731975383        9.1525227593       27.1457138566
  N        -1.4660923856       16.2107912320       30.7602207079
  C        -2.1372687061       15.9583936773       32.9098194381
  C        -2.4968322096       13.7930729636       34.0816492998
  H        -2.0504531642       12.0934922698       32.8903672790
  H         6.6254545750       12.9646485739       17.6603176644
  H         5.1023691127       12.5005248275       18.4092141463
  H         5.4460458317       14.1351155550       18.1190696793
  S         3.5122437879        9.6517518541       14.2883908065
  C         3.7077752038        6.9923223995       13.6609469544
  H         4.1405834127       11.0872411115       29.6921628954
  H         4.1141374313       10.1244542745       31.2200223439
  C         5.3458504415        9.2582185094       29.9690744797
  H        -6.0172382218        9.8930535844       27.9365037319
  H        -6.3068001138        8.2492740392       27.3197502753
  C        -5.8710985054        9.7196070974       25.7364734266
  S        -1.4919964399       17.7473656035       31.3549659715
  N        -2.0317164026       17.3807752017       32.8342298298
  C        -2.4996403491       15.2986477826       34.1096114955
  H        -2.8924902096       13.2366066429       34.8931594464
  C         3.7352783519        8.9423494251       12.6987711542
  N         3.7869731160        7.6444297858       12.5573380222
  O         3.6785356541        5.7652872105       13.7637140695
  H         6.1030784562        9.8642634852       30.4576776955
  H         5.7294944573        9.3588246332       28.9626653439
  C         5.3343243048        7.8367907953       30.5399001616
  H        -4.8377922581       10.0640216434       25.5443043911
  H        -5.8946946288        8.8375660322       25.0565353442
  C        -6.9342226649       10.7731067610       25.3978055411
  C        -2.8129267597       16.0875738355       35.2431432448
  S         4.2174739609        9.9898548777       11.4384041649
  C         3.8424683477        6.9267882246       11.2291888637
  H         5.6687853696        7.9141102604       31.5634317860
  H         4.3819753070        7.3299141063       30.6074538548
  C         6.3449382394        6.9002929820       29.9762962752
  H        -6.6678595166       11.2312289261       24.4841210182
  H        -6.8776408406       11.5632321562       26.1166391238
  C        -8.3362680727       10.2424376169       25.3210335973
  H        -2.6897119762       17.1400513106       35.0371019332
  C        -3.3288979518       15.8247813302       36.5000542436
  H         4.3578740926        7.4828829148       10.4415285659
  H         4.3416365137        5.9640803867       11.2599100906
  C         2.3516034441        6.7160327942       10.7470412411
  H         7.1268397215        7.4890365757       29.5431018857
  H         5.9125120152        6.3705227951       29.1109177832
  C         6.8092499305        5.9343515292       30.9894374559
  H        -8.6180275257       10.4415515444       24.2806770479
  H        -8.4479062940        9.1608084476       25.4355806443
  C        -9.2802872151       10.8088576459       26.3998393491
  S        -3.9062740061       14.3497609099       37.0828647252
  C        -3.4149703718       16.9665725936       37.5016064100
  H         1.7075250483        6.3509899132       11.5549636906
  H         1.9773273801        7.7080013296       10.3766251176
  H         2.3838061935        5.9951227949        9.8983448779
  H         7.3552174407        5.1062033296       30.5501853190
  H         5.9978821562        5.5049932771       31.6107444865
  H         7.4618867428        6.4626756119       31.7300455351
  H        -9.2159901963       11.9493798531       26.3288066638
  H        -9.0035308106       10.6723918048       27.4059346252
  H       -10.3368364682       10.4570321912       26.2782459044
  C        -4.3429600001       15.2661014925       38.6088444316
  N        -3.9919934878       16.5565997324       38.6155463847
  O        -2.7972804450       18.0097103627       37.3539057750
  S        -4.8679535245       14.3853392715       40.0678294946
  C        -4.0423727786       17.3877238045       39.7821987574
  H        -4.0813695662       18.3970927452       39.5287503636
  H        -4.8707006877       17.1594841758       40.4317337670
  C        -2.8155863306       17.0503773796       40.6587896876
  H        -1.9121939150       17.3733427846       40.1891534664
  H        -2.7832086031       17.6788159389       41.5692135237
  H        -2.7461123907       15.9877818489       40.8812454298
