352
i=
  H         3.2635065563        0.9813073390       13.6034122293
  C         3.9319322520        1.7225268737       13.1278290910
  H         4.6858757348        1.0460239549       12.8465972799
  C         3.3674128992        2.3436028125       11.8509351779
  C         4.5091315725        2.6751315703       14.1902336645
  C         4.5724751405        2.5774188384       10.9085934752
  H         2.9083132306        3.2674142869       12.1240927241
  H         2.5673941618        1.7365823341       11.4206922080
  H         3.8637450112        3.4925829664       14.3832635673
  H         5.5301222577        2.9819755310       13.9427098553
  H         4.6184149175        2.1516298478       15.0589736944
  C         4.9516029454        1.2600576660       10.1704633654
  H         4.1553990970        3.2988067986       10.2187271237
  H         5.5529367856        2.8391472952       11.4472390888
  C         5.5244848434        1.5014940743        8.7459593189
  H         4.0979880605        0.6261757830       10.1697021948
  H         5.6387939371        0.7785968183       10.8551800976
  C         6.7951162046        2.3953808184        8.7000134565
  H         4.7488916035        1.9144460865        8.1347479593
  H         5.8451644409        0.5505971769        8.2656045362
  C         8.0765602859        1.7110912261        9.2068332635
  H         6.9260327206        2.7694699868        7.6711908661
  H         6.6587035933        3.3309599901        9.2361503542
  C         9.3346344733        2.5852500669        9.2494820096
  H         8.3665753771        0.9628619117        8.4861284461
  H         7.8921630580        1.1818759775       10.1967520877
  C         8.8687857339        3.8905435530        9.9193222800
  C         9.6809436076        3.1924519415        7.9590668388
  C        10.4018647468        1.9396755770       10.1222068148
  C         9.0907274432        4.9441249378        9.0960380671
  C         8.1981980721        4.2574699081       11.0893761948
  C         9.6134753089        4.5282876386        7.8833695519
  C        10.2076750754        2.5990533255        6.7441244254
  H        10.0386515340        1.8445583975       11.1394877900
  H        10.4485865171        0.9631474766        9.6775745191
  C        11.7665504533        2.5666844326       10.0921249182
  S         8.6356821226        6.4470674569        9.7679911729
  C         8.1020682369        5.6090851523       11.2240539573
  H         7.8528999821        3.4808896717       11.7640830720
  C         9.9514522296        5.2010138068        6.7414937611
  H        10.3274749444        1.4831902788        6.6506935513
  C        10.5387466825        3.3016883414        5.6281304143
  H        11.6821849288        3.5935361870       10.2590951280
  H        12.1459985850        2.6265281706        9.1089988366
  C        12.7363899416        1.7402182054       10.9761867083
  C         7.6131863771        6.3224502281       12.4361941704
  C        10.4001811919        4.6618117733        5.5723424637
  H         9.6410678509        6.2629411559        6.7310439394
  C        10.8627655168        2.9172922963        4.3455642020
  H        13.7139088828        1.8323859032       10.6123096686
  H        12.5552473441        0.7339483920       10.8041146277
  C        12.5724288997        2.2025112422       12.4371573337
  C         7.7610972404        7.7081129066       12.7207033874
  C         7.1821484334        5.5230580654       13.6145221884
  C        10.7909898162        5.3896230038        4.3712741216
  C        11.0945983606        4.0410977526        3.6075652257
  S        11.1107679804        1.4458619528        3.5573012841
  H        12.2752239781        3.2799857997       12.5682355396
  H        11.7225880524        1.6732629368       12.9042001017
  C        13.8060164737        2.2116570368       13.3177404761
  N         8.2722568128        8.6096226911       11.7315237290
  C         7.5059790089        8.2507708000       13.9371952924
  C         6.8610907298        6.1301213534       14.7963904658
  H         7.0083164493        4.4364308777       13.5664449360
  C        12.0220292113        6.2592494973        4.4985215607
  C         9.6971885885        6.1949757562        3.6234928328
  C        11.3871047430        3.6987166321        2.2756779359
  C        11.4384506308        2.3266063938        2.0982980741
  H        14.4369650976        2.9461983718       12.8124284508
  H        14.2417145181        1.1854759417       13.2027257897
  C        13.5753234536        2.4881119034       14.8646910026
  S         8.3281368621       10.0422806038       12.4701375075
  N         7.7637164818        9.6147318351       13.9769500994
  C         7.0171432496        7.5667644669       15.0649239579
  H         6.6485794843        5.4770602581       15.5930926640
  H        11.7357661063        7.2020277174        4.9753854791
  H        12.3138916960        6.4569121741        3.4757668355
  C        13.2355889975        5.6800842417        5.2893500939
  H         9.5422635754        7.1556037308        4.0347444031
  H         9.9968986726        6.3224532953        2.6862513287
  C         8.3715935906        5.3901674014        3.4561012578
  H        11.4875474395        4.4359314466        1.4652648510
  C        11.7377191381        1.5536449819        0.8132661287
  H        14.5217255709        2.7492386190       15.3810009578
  H        12.9368912902        3.4278551206       15.0466761668
  C        12.7867608117        1.3778244133       15.5709191872
  C         6.7754015040        8.2510683581       16.2534351721
  H        13.1885195972        6.2949189569        6.2529710032
  H        13.0144150427        4.6841371311        5.5967068462
  C        14.5861640226        5.6394039887        4.4446857442
  H         8.0319420024        5.1005128555        4.5057184487
  H         8.6047597390        4.5042279172        2.8567135482
  C         7.2823255076        6.2089848644        2.7463997544
  C        11.6949421603        0.1625274873        0.7056553143
  C        11.9918775062        2.2804552889       -0.4470899134
  H        13.2481033423        0.4033539172       15.3476469749
  H        11.7196391451        1.4392864497       15.3116893440
  C        12.9499096112        1.6018729860       17.0330395068
  H         6.7569699904        9.4042952588       16.2013691156
  C         6.5883000092        7.7898207028       17.5793644674
  H        14.8643108763        6.6368416561        4.2087861880
  H        14.3426549886        5.0375845195        3.5927523735
  C        15.6380024909        4.9800551376        5.3014496888
  H         7.1755292340        7.0971492029        3.3076054336
  H         7.5880112914        6.4712157329        1.7874537297
  C         5.8999168468        5.4764491119        2.7368212741
  N        11.4065778789       -0.7007577544        1.7399519206
  C        11.9555937413       -0.4462914014       -0.4963991126
  C        12.1598279879        1.6564556256       -1.6423340543
  H        12.2428175188        3.3651045283       -0.3898290766
  H        13.2971130587        2.5900624112       17.2014972482
  H        13.5264753435        0.9110192137       17.5599662367
  H        11.9477093201        1.5873459443       17.3851852707
  S         6.7330726954        6.1423626835       18.1015979561
  C         6.3913031608        8.7631042148       18.7153069774
  H        15.2521556147        4.1868456414        6.0534311941
  H        16.3374448220        4.2943183140        4.7333258520
  C        16.5435755132        5.9672206972        5.9667308537
  H         5.5534047564        5.4502528085        3.7878776204
  H         6.1851511864        4.4465975127        2.5481083285
  C         4.7003094968        5.9616058142        1.8923566535
  S        11.4960415876       -2.1607025658        1.1036700120
  N        12.0287375841       -1.7947642911       -0.3873789567
  C        12.2753731447        0.1978273504       -1.6907046304
  H        12.3188337484        2.1622541407       -2.5487153958
  C         6.4964525255        6.7457265675       19.7058746410
  N         6.1879125553        8.0874012882       19.8559230352
  O         6.3180058299        9.9712361931       18.6490486036
  H        17.1054714576        6.5065388696        5.2059962088
  H        15.9303332469        6.6567550478        6.6177893092
  C        17.6043379085        5.1496965901        6.7628703715
  H         5.0674255681        5.8988588608        0.8842075585
  H         3.8493427888        5.2427162586        1.9502897994
  C         4.2853869113        7.3683705834        2.2373967437
  C        12.5353284855       -0.6493464070       -2.8378218037
  S         6.2195103262        5.6738781390       21.0679411665
  C         6.0261175533        8.6989284179       21.1958992970
  H        17.2354574267        4.9607569979        7.7657496987
  H        17.7354003998        4.0648375426        6.4643198915
  C        18.9276513485        5.9163307807        6.9550058490
  H         4.5738031379        7.6451619697        3.2922625635
  H         3.1807865430        7.4264335057        2.2463666682
  C         4.6940255872        8.3596218620        1.2363626110
  H        12.6172923129       -1.7233621801       -2.6071982491
  C        13.1835442364       -0.3658602089       -4.0285324415
  H         5.5830189147        8.0092662795       21.9581998372
  H         5.3805656316        9.5351396891       20.9926926717
  C         7.4695003907        9.0515130695       21.6921540006
  H        19.2804151091        5.8079645088        7.9520004973
  H        18.6252484842        6.9055026512        6.7197394461
  C        19.9250464742        5.3585125406        5.9941589431
  H         5.7459488092        8.2988128870        1.0896737659
  H         4.1746098524        8.2246948635        0.2792727583
  C         4.5328487459        9.8221285386        1.5786644418
  S        13.5775267015        1.1333968725       -4.5876639059
  C        13.4666873116       -1.4256492361       -4.9978916946
  H         8.0482504492        8.1717904614       21.7816960109
  H         7.3799059227        9.3286892867       22.7080978288
  H         8.0102878794        9.8368108959       21.2013276524
  H        19.6074039810        5.4660499443        4.9351143173
  H        20.8569668767        5.8063809131        6.1001443423
  H        20.1216946572        4.3110755685        5.9963021326
  H         3.5952552350        9.9475144095        2.1884363524
  H         5.2927957229       10.2676763920        2.1783552215
  H         4.5813684186       10.4877783105        0.7255344519
  C        14.1715489765        0.3956780449       -6.1148843319
  N        14.0696188156       -0.9582368258       -6.0916741374
  O        13.2678834241       -2.6010711872       -4.8167080743
  S        14.6240130627        1.2685935445       -7.6241298726
  C        14.3269332699       -1.7852399910       -7.2818513987
  H        14.4981588867       -2.8204308605       -6.9197970989
  H        15.1684282590       -1.5550456743       -7.9733926645
  C        13.0987333756       -1.8629952896       -8.1413658806
  H        12.2425816236       -1.9969198742       -7.5416288093
  H        13.0540311862       -2.6319976350       -8.8769018852
  H        12.9298299662       -0.8716611169       -8.5293640712
  H        -3.0612289742       13.0713517394       16.8326196153
  C        -2.2910622944       13.7101416626       17.0620176075
  H        -1.6081789383       13.1053454696       17.5486261867
  C        -2.9317033384       14.7696803258       18.0585326883
  C        -1.7668245437       14.4130142078       15.8235269337
  C        -3.2666241546       14.1762578410       19.4444702918
  H        -2.2058441115       15.5642301196       18.2819000390
  H        -3.7529609037       15.3188497410       17.5614751796
  H        -0.7760093138       14.8301750437       15.8544870607
  H        -1.7828599551       13.7864177901       14.9100809238
  H        -2.3589982247       15.2509806768       15.5794205765
  C        -1.9968675043       13.5197814860       20.1880453555
  H        -4.0876802733       13.5010420475       19.2185499734
  H        -3.6042767648       14.9029810534       20.0857269903
  C        -2.1399501514       13.2542208925       21.6833242948
  H        -1.9327999892       12.5391935737       19.6741346531
  H        -1.1132832020       14.0454337156       20.0617457360
  C        -0.8697126403       12.5046644319       22.1511594780
  H        -3.0292463479       12.7203046477       21.8190353015
  H        -2.2375874080       14.2188920008       22.1526622031
  C         0.1837947183       13.5052766785       22.6334059158
  H        -1.0085712433       11.7422272029       22.9328936847
  H        -0.5192708330       11.8990020902       21.3323379463
  C         1.3899821750       12.8368860743       23.3910399859
  H         0.5030918648       14.1868762133       21.8614817125
  H        -0.2342508942       14.1989428058       23.4205203060
  C         1.7157638987       11.4710650561       22.6925651150
  C         1.0011042405       12.1105699650       24.6035109426
  C         2.6402835945       13.7496802232       23.5987517535
  C         1.5354109015       10.3544393680       23.5188463374
  C         2.0792571017       11.0677801646       21.4232859265
  C         0.9824740041       10.7656930999       24.6735597085
  C         0.5432281685       12.6939490922       25.7974712500
  H         2.7896953562       14.2675769432       22.5892072600
  H         2.3987948968       14.5592048785       24.2945161002
  C         3.8717023902       12.9157030642       24.1429527541
  S         1.9982729240        8.8322292726       22.7788765528
  C         2.2350215965        9.7242287287       21.3131986492
  H         2.1183553025       11.8244076348       20.6943322173
  C         0.5566452452       10.1237615382       25.8013057823
  H         0.5545889849       13.7684040021       25.8172023376
  C         0.1062216556       12.0871119893       26.9481181442
  H         4.0905515920       12.1897280022       23.4268506384
  H         3.5942017738       12.4172932301       25.0672457425
  C         5.1690279058       13.6502381885       24.4102282252
  C         2.6190518961        9.1454134546       19.9629553678
  C         0.1551133274       10.7546029063       27.0158273099
  H         0.6524001226        9.0642280405       25.8063108608
  C        -0.4035821599       12.4186476752       28.1910005419
  H         5.9567994671       13.0206106079       24.6868720073
  H         5.0284838698       14.3939770546       25.2222838809
  C         5.6299391899       14.5279302841       23.2310260500
  C         2.8098319084        7.8046171792       19.6885048250
  C         3.0341577426       10.0398087733       18.8610575509
  C        -0.1825520978       10.0438627223       28.3767086432
  C        -0.4916715711       11.3772700090       29.0367007975
  S        -0.7365049093       13.9073162932       28.9498449913
  H         6.2994664420       15.2827433062       23.6445974617
  H         4.7008808518       15.0141464085       22.7483815950
  C         6.1221932458       13.6866574030       22.1038550027
  N         2.6755813042        6.8198027014       20.5889211229
  C         3.1362087153        7.3334777180       18.4401373706
  C         3.2007696006        9.5933217537       17.5780863262
  H         3.0256359870       11.1127897960       18.9608944253
  C         1.0266917507        9.3996251521       29.0407542795
  C        -1.4921915857        9.2198427471       28.2834719162
  C        -0.9703243817       11.6708656355       30.3143019000
  C        -1.0661666421       13.0502164772       30.4341463108
  H         7.1677678942       13.6706687284       22.1328001589
  H         5.6929116945       12.7088713260       22.1193150220
  C         5.8117151067       14.1813372735       20.6874944885
  S         2.7783851985        5.3710842596       19.8928927791
  N         3.0428476694        5.8826432428       18.3374130108
  C         3.3897798859        8.1507366818       17.3333970390
  H         3.3710092480       10.3655576561       16.8252173700
  H         1.6364875889        8.7263347451       28.3583287451
  H         0.6490323673        8.8524233068       29.9056388890
  C         2.1004050378       10.3818067729       29.5686730545
  H        -1.2877774721        8.4578631614       27.6281995641
  H        -1.7753108761        8.6854775089       29.2741646361
  C        -2.7748018804        9.8733336101       27.6991158327
  H        -1.0929967253       10.9240033919       31.0627229749
  C        -1.5884309608       13.7229605007       31.6628568288
  H         6.2668371500       15.1880043980       20.6118878918
  H         4.7395443184       14.2251186024       20.5998732645
  C         6.4222776431       13.2501350679       19.6325722545
  C         3.5640279416        7.5692462378       16.0764507991
  H         2.4911319702       10.9746991885       28.6737688184
  H         1.6852118309       10.9879147163       30.3657157321
  C         3.1949548089        9.5828060029       30.2992163835
  H        -2.5263596056       10.3676567549       26.7704885115
  H        -3.0730632339       10.7133141502       28.2317088808
  C        -3.8368741187        8.8698998073       27.4643457778
  C        -1.4338954071       15.1503799179       31.9012988870
  C        -1.9457316970       12.8703717390       32.7736174523
  H         6.4756158137       12.2420144689       20.0350789430
  H         5.7879373194       13.1617382139       18.7813410398
  C         7.8057556224       13.7389756831       19.1323482128
  H         3.4675449356        6.4895749558       16.0858569356
  C         3.7902263147        7.9911102832       14.8431603656
  H         3.8247699653        8.9937222325       29.6554692808
  H         2.6288881538        8.8155643809       30.7717887287
  C         3.9888576650       10.4428070499       31.2725351439
  H        -3.5432694772        8.0707285917       26.7395270762
  H        -3.8325000746        8.3453033480       28.4185219754
  C        -5.2540734380        9.4338458680       27.2303883229
  N        -1.0388437652       16.1288065751       30.9352558658
  C        -1.8340830171       15.7209858486       33.0986932832
  C        -2.1832075782       13.4227497340       34.0034774455
  H        -1.9101381659       11.8015704455       32.7629476228
  H         8.4356242209       13.7661762022       20.0257587520
  H         8.3079984379       13.2036044265       18.3581223067
  H         7.9045419359       14.7706347097       18.7423759741
  S         4.1825109676        9.6062941058       14.4117768832
  C         3.7188369482        7.0171707689       13.6914830586
  H         3.7735701570       11.4605246472       31.0127129437
  H         3.6213771996       10.1487572141       32.2454005240
  C         5.4494911074       10.2249120278       31.1371847704
  H        -5.6074761461       10.1499461477       27.9771025961
  H        -5.9596243029        8.6012089951       27.3649443104
  C        -5.5454450482        9.8354628605       25.7662663138
  S        -1.2088671425       17.6217066453       31.6423370861
  N        -1.7688989581       17.0665649309       33.0842099053
  C        -2.2996067193       14.9511694221       34.2279599722
  H        -2.2552101527       12.7094680817       34.7833916057
  C         4.3860594329        8.9991854849       12.7845342626
  N         4.1824529976        7.6718899726       12.6137135535
  O         3.3384347955        5.8787558036       13.7691288193
  H         5.9264616639       10.9125046391       31.8086423023
  H         5.7700015379       10.5087086815       30.1396849969
  C         5.9187350407        8.8290406556       31.4438324482
  H        -4.7617509079       10.5157559256       25.4434309941
  H        -5.5601095806        8.8787624848       25.1364888065
  C        -6.8032538345       10.5998027228       25.5879377102
  C        -2.5144815491       15.6171228417       35.4812595530
  S         4.9994097543        9.9699292820       11.5041952060
  C         4.2211776901        6.9254896240       11.3861588388
  H         6.5341742383        8.6689149596       32.3073935199
  H         5.0274483063        8.2816749429       31.6930685440
  C         6.7532759536        8.0468739054       30.3147448154
  H        -6.9829502276       10.5906639263       24.5298495931
  H        -6.6886530125       11.5991432800       26.0549315421
  C        -7.9845233347        9.8920508637       26.2192755529
  H        -2.3927068849       16.6837019836       35.5903543053
  C        -2.9101312897       15.1380813565       36.7056010586
  H         4.9698344229        7.4098867295       10.7089605992
  H         4.4735688804        5.8464371855       11.5419546809
  C         2.8404154027        7.0585076204       10.7841623564
  H         7.4428098674        8.6863312108       29.8201569284
  H         6.1145998704        7.7021391727       29.5104454294
  C         7.4828338855        6.7598934774       30.8024390625
  H        -7.7277022341        8.8066515894       26.2809244019
  H        -8.1651415763       10.1159576385       27.2982723487
  C        -9.3332155097       10.1209132254       25.5231890939
  S        -3.3749640423       13.5464382430       37.0401117036
  C        -3.0050988366       16.0966820651       37.8184607421
  H         2.3908271206        8.0862855299       10.8266063383
  H         2.8133672074        6.7961171476        9.7282513602
  H         2.1118990956        6.4544529104       11.3486717882
  H         6.9028428911        6.2475053343       31.6309920334
  H         8.4436160439        7.1125360349       31.1900541708
  H         7.6833526013        6.0286145573       29.9816737217
  H        -9.8445542470       10.9085460794       26.0229765409
  H        -9.8647678358        9.1845913227       25.4196650770
  H        -9.0784151730       10.4972018829       24.5479456912
  C        -3.6848742563       14.1434345279       38.6604297032
  N        -3.4513117496       15.4404587296       38.8643893114
  O        -2.5506193814       17.2483413517       37.8276116103
  S        -4.4640112922       13.1699185952       39.8368739374
  C        -3.6714667898       16.1084886500       40.1682803576
  H        -3.7015527908       17.1352354564       39.9781182649
  H        -4.6427960878       15.7836428430       40.5012011549
  C        -2.5161794315       15.6611329408       41.1168487313
  H        -2.7476662931       14.7695299969       41.6745821001
  H        -1.5958987215       15.5351767092       40.6123729301
  H        -2.3354132789       16.4420184390       41.8356019149
