352
i=
  H         4.8477111232        1.7004147479       12.3646002238
  C         4.2742545530        2.5930669302       12.6688377238
  H         5.1915808626        3.3659463705       12.7979409496
  C         3.2568029860        3.0348740679       11.6129055492
  C         3.6386714300        2.2736863693       14.0420559091
  C         3.8545123777        3.3760126624       10.2731131237
  H         2.6041227077        3.8488480763       11.9591978606
  H         2.5744894634        2.2134415072       11.4197363610
  H         2.9862339821        1.4311120024       13.8661639445
  H         2.9951809313        3.0908037129       14.3231341539
  H         4.3268572166        2.0226212660       14.7876881130
  C         4.4037306296        2.1602262809        9.5684040476
  H         3.0597439061        3.7887705326        9.6173201960
  H         4.6141427982        4.1281779636       10.4576306720
  C         5.2743663815        2.3110116431        8.3069794546
  H         3.5127475973        1.4719458561        9.4201514278
  H         5.0849314334        1.5607836741       10.2267798054
  C         6.6018056973        3.0940248628        8.5718543464
  H         4.6997885184        2.9251480261        7.5702434275
  H         5.3476507084        1.3046162724        7.8810160384
  C         7.8468867779        2.1434696914        8.9510876449
  H         6.8982376024        3.5281503967        7.6009588330
  H         6.4215771120        3.9357321494        9.2634822514
  C         9.1747677215        2.9616899357        9.2027289801
  H         7.9250046731        1.4955833919        8.1249740746
  H         7.6034072794        1.6505852240        9.8073561593
  C         8.8731726389        4.2932565909        9.8969026548
  C         9.7069243414        3.7374998622        8.0223134917
  C        10.1945677062        2.1776540122        9.9592072701
  C         9.1253960730        5.4450860388        9.1990998013
  C         8.3805502764        4.5808069888       11.1700967086
  C         9.5891563465        5.1063080378        7.9322763307
  C        10.2086118717        3.1902986932        6.8513043688
  H         9.7407383105        1.7683506744       10.8547301426
  H        10.4622167760        1.2074132149        9.4256280503
  C        11.5357526266        2.9211643395       10.3338087499
  S         8.8095876885        6.9197545466       10.0682135914
  C         8.2051608627        5.9362634730       11.3781954877
  H         8.0201026210        3.8445834636       11.7959661378
  C         9.9364439684        5.8074425222        6.7924076762
  H        10.2723586251        2.0859050162        6.8804520878
  C        10.5087121829        3.8343292035        5.7091279593
  H        11.1924185860        3.8712177958       10.6520986061
  H        12.1509962796        3.0410927847        9.4273384901
  C        12.2375581238        2.1760689026       11.4282097791
  C         7.6474791514        6.6327357923       12.6498718799
  C        10.3941486422        5.1727857810        5.6086601099
  H         9.8166369992        6.8969782896        6.8489898913
  C        10.9278899923        3.5040928577        4.3989148026
  H        13.3158106517        2.3773842846       11.4071657708
  H        12.1134247347        1.0919936977       11.2146424775
  C        11.7396906048        2.6380080373       12.8138038787
  C         7.7036920433        8.0247723258       12.8831576742
  C         7.3890985009        5.9020215147       13.8552544041
  C        10.8790102812        5.9005918648        4.4279978108
  C        11.1997905648        4.6177099645        3.6498550489
  S        11.2274962674        2.0299156089        3.5898881569
  H        12.2579236893        3.5323053632       13.0504537843
  H        10.6446626284        2.8345075489       12.8341566330
  C        12.1484952385        1.6306500061       13.8937155267
  N         7.9673747024        9.0080628069       11.9725468132
  C         7.4155810665        8.6412745028       14.1292397114
  C         7.1269302452        6.4309659392       15.0981998275
  H         7.2491966061        4.8192218207       13.8170594792
  C        12.2424274790        6.7094514323        4.6346064746
  C         9.8765460465        6.7523463702        3.6403231708
  C        11.7133347175        4.3468943502        2.3642963870
  C        11.7296757436        2.9733868691        2.2078771109
  H        13.2168893256        1.2631526974       13.8809934351
  H        11.5577051451        0.8158399706       13.6820886898
  C        11.8298851364        2.1929504892       15.2710330042
  S         7.9602565668       10.4815720487       12.6893209901
  N         7.5418955218        9.9385232868       14.1776128814
  C         7.0728234054        7.8997646276       15.2766224156
  H         6.9470468618        5.7735646982       15.9456489262
  H        12.0811239152        7.6676246415        5.1524479612
  H        12.7235358047        7.0652488137        3.7501142486
  C        13.3708657803        6.0051123686        5.4750712665
  H         9.6086895511        7.6800310362        4.1931479159
  H        10.4337578991        6.9849521658        2.7309604234
  C         8.5314531678        6.1287979005        3.3259494251
  H        11.8610243534        5.1752745554        1.6838533278
  C        12.1354812011        2.2475451613        0.9552180665
  H        11.1803507707        3.0603140245       15.1578409052
  H        11.1628919073        1.4509547081       15.7842652617
  C        13.1301265099        2.3267670206       16.0739891467
  C         6.8290684756        8.6267726410       16.4282204412
  H        13.1050980574        6.2972290973        6.4388206588
  H        13.1972130233        4.9389725321        5.3424885136
  C        14.7430692718        6.3080832441        5.1201864782
  H         7.9588906381        6.1316836061        4.2122826518
  H         8.7163825052        5.0683038024        2.9891656983
  C         7.7989101244        7.0513101954        2.3275027792
  C        12.2556251674        0.8482650220        0.7920956975
  C        12.2832834938        3.0092874573       -0.2731884822
  H        13.8531677007        2.8882779130       15.4989840733
  H        13.5359114790        1.3071860695       16.1395746587
  C        12.8487750936        3.0473747168       17.3782980173
  H         6.6601340247        9.6824492616       16.2983101118
  C         6.5370718050        8.1950421267       17.7296428063
  H        15.0682425808        7.3644739705        4.8352776096
  H        14.9039343370        5.6888495928        4.1733550320
  C        15.6450391551        5.7106744036        6.1106884229
  H         7.6431630194        7.9908150225        2.7965606674
  H         8.4312192458        7.2240385644        1.4439095531
  C         6.5299163702        6.3225748892        1.8827402666
  N        11.9416361372       -0.0597597118        1.7942316819
  C        12.5259674549        0.2378060376       -0.4272463268
  C        12.5673525054        2.4687358485       -1.5549643300
  H        12.1813309204        4.1036292166       -0.3192679837
  H        12.2010470050        3.8907127732       17.3835802619
  H        13.8307286465        3.2573168675       17.8778297906
  H        12.3909424334        2.2456564804       17.9999613016
  S         6.4014986357        6.5470454391       18.2832725290
  C         6.5494303931        9.1794913152       18.8458900470
  H        15.3902708337        6.1754974661        7.0110114779
  H        15.5908536625        4.6302883599        6.2688293518
  C        17.1407723304        6.0039648572        5.8462140322
  H         6.1608149211        5.6427894485        2.6377420557
  H         6.7981158960        5.7402531394        1.0662462006
  C         5.3091093833        7.2380346548        1.7340200318
  S        12.3442910954       -1.5458844696        1.2324381668
  N        12.8261364167       -1.0864996393       -0.2381342265
  C        12.5794333684        0.9905593132       -1.6341779572
  H        12.7424873704        3.0475708033       -2.4294846900
  C         6.1798220629        7.2738682833       19.9557739444
  N         6.2578317596        8.5756078751       19.9899858932
  O         6.7420808902       10.3986249597       18.8030563957
  H        17.4307679332        5.6194390006        4.8420595586
  H        17.2749593529        7.0234247421        5.8886574028
  C        17.9694508871        5.3150155700        6.9049016467
  H         4.4265226461        6.5404068163        1.6948991695
  H         5.1107813167        7.8301677929        2.6226685779
  C         5.2037686215        8.0628116332        0.4672675563
  C        12.8244768046        0.1378502477       -2.7465117631
  S         5.6683459969        6.4111098067       21.4173795024
  C         6.1812355798        9.3694156473       21.2404578568
  H        17.4645614446        5.1337409209        7.8604886004
  H        18.3465079393        4.3547054993        6.4390299174
  C        19.2158324077        6.1684036938        7.2914048098
  H         4.9839177570        7.3896844760       -0.3286120459
  H         6.1196836534        8.4993105434        0.2321064477
  C         4.0482685308        9.0711554252        0.6609866707
  H        12.3535386813       -0.8382547320       -2.6069145344
  C        13.5546401058        0.3214297409       -3.9253717890
  H         5.4891937476        8.9370560103       21.9432054939
  H         5.6466030587       10.3019479397       20.9897838195
  C         7.5922330491        9.6506612584       21.7882814591
  H        19.7733189096        5.6698108527        8.0615893005
  H        18.9455453465        7.0752280464        7.7268258609
  C        20.4205311253        6.3095366267        6.2886559770
  H         3.5917936415        9.2822656466       -0.2421915304
  H         3.3889813750        8.5847266079        1.3198722894
  C         4.5010065276       10.2843357871        1.4008862633
  S        14.3124850123        1.7696007536       -4.3747785224
  C        13.6827710460       -0.8044364080       -4.8719782802
  H         7.7280935373       10.5547518489       22.3242791586
  H         8.3451184354        9.6911124040       20.9684966759
  H         7.9653936510        9.0471295155       22.5771792893
  H        21.1905234057        6.8482754410        6.8288736828
  H        20.8620629739        5.3266741458        6.0381049387
  H        20.2083005164        6.8399236007        5.3519072474
  H         4.8433681535       10.9899764263        0.6511660559
  H         3.6233957680       10.6476764054        1.8938516957
  H         5.2625508682       10.1205886202        2.1261398377
  C        14.7971992019        0.9385416235       -5.8003738566
  N        14.4849274182       -0.3815954340       -5.8876069561
  O        13.2477517221       -1.9261578319       -4.7162349948
  S        15.6740537305        1.7366754038       -7.1066454131
  C        14.6730783907       -1.2906568732       -7.0385370260
  H        14.8369467133       -2.3067845439       -6.7060149100
  H        15.5398586004       -0.9547556977       -7.6053802261
  C        13.4047212054       -1.4019445124       -7.9515189431
  H        12.4473062928       -1.2156856692       -7.4895488920
  H        13.3481201086       -2.3524823173       -8.5440325036
  H        13.5548976450       -0.6241413405       -8.7031564637
  H        -3.5106994757       14.8763295534       16.0358715297
  C        -3.1160085404       13.9154551821       16.3527877444
  H        -4.0374895773       13.2973038510       16.4808953841
  C        -2.3589501834       13.9666568784       17.6809789442
  C        -2.3013905228       13.3798401870       15.2167108076
  C        -3.1070167553       13.5490885019       18.9073768763
  H        -1.4920257073       13.3475949427       17.6155451352
  H        -1.9507774271       15.0075351953       17.6876335664
  H        -2.1117794045       12.3381576286       15.4530820348
  H        -2.7009061058       13.5756793192       14.2299911891
  H        -1.4072594019       13.8705419840       15.1900127926
  C        -2.2051601213       13.2952650539       20.1314468274
  H        -3.8575403820       12.7962486914       18.6977130851
  H        -3.6921542464       14.3717208661       19.2964894210
  C        -2.8204613513       13.1705798700       21.5214349848
  H        -1.7727569467       12.2234904742       19.8619808423
  H        -1.4231401868       14.0272299260       19.9618482825
  C        -1.7187524148       12.6184741986       22.4973849662
  H        -3.7331933678       12.5652684687       21.5987408308
  H        -3.0491540283       14.1900589282       21.7946029751
  C        -0.4918177904       13.5819163533       22.5854796150
  H        -2.1322496885       12.3639489728       23.4802459215
  H        -1.3816038316       11.7050468728       22.0827490864
  C         0.7221080754       13.0405667288       23.2679822328
  H        -0.2267089666       13.8100656953       21.5711539038
  H        -0.7574540828       14.5804298801       22.9719455303
  C         1.0406874723       11.6797041351       22.5489933833
  C         0.4536131116       12.3351665217       24.5356020683
  C         1.9578278417       13.9752963719       23.3046253419
  C         1.0334912391       10.5987555130       23.4085148276
  C         1.6736759759       11.3516165658       21.2876910957
  C         0.5223028785       10.9654442263       24.6754075768
  C         0.1535303668       12.9836621602       25.7355059082
  H         2.1958225617       14.1245902287       22.2608900920
  H         1.7605409426       14.9785536251       23.7290968849
  C         3.1691978391       13.3716880320       24.0050606880
  S         1.6892702015        9.1442765382       22.7222415734
  C         1.9775154538       10.0341618063       21.2340677452
  H         1.7932824223       12.1606403645       20.5453391661
  C         0.3511248440       10.3454074932       25.8618210447
  H         0.1697559852       14.0669989055       25.8355900685
  C        -0.0005106323       12.3342489118       26.9545220730
  H         3.3064096846       12.3827595984       23.5750450396
  H         3.0609650510       13.3332432692       25.0357156642
  C         4.4481866584       14.1342399621       23.8036711037
  C         2.5770473822        9.3421751744       20.0325601308
  C         0.0140168814       10.9543156531       27.0864629807
  H         0.4014318132        9.2412055090       25.9268062556
  C        -0.3258394552       12.6677063010       28.2602257397
  H         5.2870874432       13.5275888482       24.2806609311
  H         4.4353600710       14.9820348411       24.4587435111
  C         4.9304434338       14.5066042673       22.4007054506
  C         2.6781189503        7.9816463365       19.8207013755
  C         3.1555418975       10.2086652446       18.9854226249
  C        -0.2248369838       10.3020234458       28.4103007927
  C        -0.5407626268       11.6219747436       29.0751618175
  S        -0.6682693789       14.1568795878       28.9847611660
  H         4.4376231619       15.4303286745       22.1635160128
  H         4.4638459700       13.8062704030       21.6673291397
  C         6.4046329404       14.7423608291       22.2472330479
  N         2.3351468798        6.9776366381       20.7367890882
  C         2.8841181320        7.4108537923       18.5671709322
  C         3.4688219693        9.6723532100       17.7190443196
  H         3.1448118300       11.2625959499       19.2262800757
  C         1.0294382948        9.6346651984       28.9681429263
  C        -1.5041982418        9.4794451157       28.3754961805
  C        -0.9256247486       12.0162283518       30.3767909741
  C        -0.8405504005       13.3397110934       30.5088654969
  H         6.4123928725       15.4450595163       21.4504384904
  H         6.8687381313       15.1413983003       23.0630714682
  C         7.1729355495       13.5223017412       21.8058172030
  S         2.3817709952        5.5377562916       19.9487080603
  N         2.8023097134        6.0224369093       18.4752251997
  C         3.3438655921        8.2077097063       17.4765210462
  H         3.8616730382       10.2951770528       17.0085030330
  H         1.3938414178        8.8564903092       28.3058504803
  H         0.6476035978        9.1813842387       29.9093069777
  C         2.2202891663       10.5473499707       29.2443623500
  H        -1.2773638030        8.6380523288       27.7472755789
  H        -1.6599369163        9.0176024511       29.3753878594
  C        -2.8099239080       10.2691436205       27.8621989564
  H        -1.0813466534       11.2106229952       31.0941203390
  C        -1.2292662972       14.0157397945       31.7360920550
  H         6.6342566917       12.6207386206       22.0454874857
  H         8.0987390879       13.4639782197       22.2949803020
  C         7.3480715022       13.5155933296       20.2909890988
  C         3.5132045670        7.5048246104       16.1550197953
  H         2.5938043658       10.9928879225       28.3435766011
  H         2.0299339499       11.2673079808       29.9799159702
  C         3.3013935518        9.7191925603       29.9359579121
  H        -2.6667969564       10.7356436351       26.8974642781
  H        -3.1545761554       11.0057947954       28.5658267685
  C        -3.9159058175        9.2978057341       27.6159860049
  C        -1.3971143495       15.4427057664       31.9644850129
  C        -1.3713436339       13.2669352994       32.9962899172
  H         8.3116739406       14.0325874212       20.1038335634
  H         7.6341042204       12.5340286545       19.9409429287
  C         6.3445163074       13.9662872057       19.2304345371
  H         3.6929252836        6.4051130765       16.1810063489
  C         3.6937720826        7.9837810802       14.8586521191
  H         3.7941528218        9.1322742370       29.1758006289
  H         2.8379594455        8.9832205042       30.6152307579
  C         4.3478198090       10.4851973853       30.7365123887
  H        -3.6716655147        8.7130904156       26.8114743266
  H        -3.9701796248        8.6384711471       28.5127756281
  C        -5.2843629831        9.9992878347       27.3063245415
  N        -1.2317676612       16.3888251849       30.9904847115
  C        -1.6085438968       15.9752685591       33.2011366496
  C        -1.6641776294       13.8269083639       34.2510885472
  H        -1.2269321608       12.2045114845       33.0661553765
  H         5.3725721906       13.5215720252       19.2814210361
  H         6.2401112411       15.0785951574       19.2307521862
  H         6.6769492008       13.7362733788       18.2253092409
  S         4.0331561001        9.6100130724       14.4266127645
  C         3.7340530554        6.9969693165       13.7690428391
  H         4.5802927927       11.2812750309       30.0178828165
  H         4.0641618805       10.8998764039       31.6837126582
  C         5.5864625884        9.6731984082       30.9358523138
  H        -5.4017503592       10.7626379601       28.0925626851
  H        -6.0939199618        9.3154212576       27.2591256658
  C        -5.2426387219       10.7893655353       25.9873965008
  S        -1.5162887536       17.8718461701       31.6087802095
  N        -1.5865760951       17.3734698777       33.1572164185
  C        -1.8604301136       15.3118228519       34.3772688677
  H        -1.6302733985       13.1330169990       35.1007015449
  C         4.2392498044        8.9923644520       12.8118716476
  N         4.2209182973        7.6250801885       12.6959911535
  O         3.6887743568        5.7254098660       13.9202520579
  H         6.3266970523       10.2305153390       31.5662032892
  H         6.1076970810        9.5649698110       30.0437772126
  C         5.3894944396        8.3575486281       31.6638006791
  H        -4.4772426201       11.5193827836       26.1125313914
  H        -4.8464470257       10.1871339428       25.2116768622
  C        -6.5253114070       11.5935664647       25.6365947339
  C        -2.2253535978       16.0019804974       35.5806199003
  S         4.9330053315        9.8873736992       11.4066398515
  C         4.3576548215        6.9293631863       11.4186885543
  H         6.0841821469        8.3905360157       32.4873918122
  H         4.3989129454        8.2773667738       32.0715178759
  C         5.8348777231        7.1439499366       30.7939017256
  H        -6.2265923797       12.2671184933       24.7510445186
  H        -6.7507337005       12.2677239711       26.4251288349
  C        -7.6556253864       10.7039085903       25.2067755391
  H        -1.7445478612       17.0022311532       35.7087718508
  C        -2.6867004995       15.5971670119       36.7731025609
  H         5.0447652475        7.3944668584       10.7447141187
  H         4.7516048683        5.8942215082       11.6240956202
  C         2.9787180288        6.8098240940       10.6493566576
  H         5.0759733358        6.8910968686       30.0475378550
  H         5.8961911859        6.3961763649       31.5402226889
  C         7.2684297436        7.3339333810       30.1559459795
  H        -8.1012115629       11.0933153844       24.2748345357
  H        -7.1530393138        9.7764544091       25.0258292322
  C        -8.6470683042       10.3362924040       26.2957801027
  S        -3.2307902239       14.0018749589       37.1517316309
  C        -2.9218866401       16.5549730081       37.9028385638
  H         3.0180208088        6.6818832740        9.5649207501
  H         2.5088066372        5.8903475744       10.9232198712
  H         2.3139180531        7.7026101649       10.8445920161
  H         7.7378840804        6.3473866642       29.9566913004
  H         7.9008426977        7.9419567306       30.7656408910
  H         7.2066590932        7.8028045271       29.1835539081
  H        -9.6604012617       10.2172646846       25.9947740075
  H        -8.7132172011       10.9916033391       27.1965836724
  H        -8.4292384367        9.3673280868       26.6931228356
  C        -3.6923538713       14.5547250728       38.7283733593
  N        -3.4898581761       15.8529354211       38.9471967770
  O        -2.4745879531       17.7070694130       37.8699312346
  S        -4.1812815359       13.4905793051       39.9900512841
  C        -3.5709209372       16.4191836772       40.2592548744
  H        -3.9422356927       17.4452706728       40.1901505947
  H        -4.2522251632       15.7926708385       40.8937188269
  C        -2.2640913931       16.4932583517       41.0069372789
  H        -1.6663926318       17.2633642447       40.5604902306
  H        -2.4293889442       16.7739013239       42.0609647510
  H        -1.6856823663       15.6172222831       41.0145918278
