352
i=
  H         1.9385436997        1.0528177185       12.2301946093
  C         2.8366044656        1.6055737846       12.4882188549
  H         3.6296800694        0.8154217100       12.4017264783
  C         2.9300028925        2.6572089696       11.3721068428
  C         2.7279243550        2.1945454461       13.9138974951
  C         4.4101351424        2.7376077781       10.9104180309
  H         2.6571466851        3.6945801086       11.7931314719
  H         2.3537291890        2.3160262455       10.4722038071
  H         2.3629743583        1.5175586178       14.6804097207
  H         1.8917217285        2.9591668461       13.9654843146
  H         3.6569890273        2.7328682254       14.2492688928
  C         4.9060203015        1.5331213384       10.1422003693
  H         4.3966343566        3.5476500928       10.1721579204
  H         5.1143059496        2.9885966171       11.6824694558
  C         5.5662950554        1.8074376770        8.8581791216
  H         4.0389737855        0.9489339668       10.0122539546
  H         5.6365735685        0.9245974094       10.7710809234
  C         6.7979928818        2.6937422074        8.8963946609
  H         4.8016390914        2.3664871631        8.2789312861
  H         5.6061054060        0.8827344173        8.3053604508
  C         8.1452067498        2.0774129196        9.2607747636
  H         6.8639691046        3.1345991534        7.9278080583
  H         6.5838339215        3.5671728329        9.5610745433
  C         9.2942173806        3.0698844003        9.4427176029
  H         8.3746063788        1.3768474655        8.4463206113
  H         7.9757797270        1.5168878921       10.2492996500
  C         8.8757058087        4.3843578464       10.1157613011
  C         9.5614577323        3.7741636452        8.1550890649
  C        10.5022706013        2.5034224921       10.1621722489
  C         8.9713453497        5.5389455179        9.3268728289
  C         8.2358664770        4.6967111302       11.3335544361
  C         9.4708486176        5.1602506875        8.0596040086
  C        10.0343501021        3.1425167654        6.9959027292
  H        10.0483223595        1.9498774426       10.9381894015
  H        10.9927761181        1.7689676774        9.4849810886
  C        11.5605046223        3.5052353047       10.6402655487
  S         8.5684876441        6.9949046088       10.1269736583
  C         8.0729270617        5.9944387361       11.5016453411
  H         7.9239051499        3.8808183772       11.9212406275
  C         9.8717999059        5.7939565393        6.9038269567
  H        10.2319602221        2.0509827131        7.0409453908
  C        10.3494940900        3.7853705826        5.8548601094
  H        11.0859483863        4.2914863398       11.2897055768
  H        11.9774818127        3.9790871083        9.8691415291
  C        12.6853973542        2.8572127416       11.4123666061
  C         7.5633769419        6.6851812811       12.7971604551
  C        10.2681997130        5.1283671931        5.6855220704
  H         9.7521283929        6.8725957823        6.9065029299
  C        10.7538140681        3.3698531810        4.6061898830
  H        13.4381459713        3.6615956126       11.7529178678
  H        13.1937636013        2.1247373600       10.7685255216
  C        12.3296810559        2.0398002977       12.6886771530
  C         7.6672838960        8.0467528952       13.1612314298
  C         7.0027678767        5.7504405265       13.8667601696
  C        10.7236557139        5.8129432406        4.4676974568
  C        11.0171310556        4.4801313618        3.8052420754
  S        11.0511182491        1.8886703634        3.8620436214
  H        11.5679397231        1.3614764646       12.4818134904
  H        13.1988093101        1.5123274681       13.1663217364
  C        11.7435409109        2.9358636631       13.8437785664
  N         8.1874833794        8.9558959926       12.2487809930
  C         7.4089361355        8.4864612379       14.4282662986
  C         6.7981619572        6.2246280434       15.1178076648
  H         6.8782992599        4.6808142630       13.6340320855
  C        11.9749977024        6.6665036629        4.6733943844
  C         9.5527230252        6.6147724308        3.7448411923
  C        11.4948012802        4.0848881756        2.5262958877
  C        11.4823071651        2.7617494417        2.4098948727
  H        10.8432519736        3.4009999248       13.3818935177
  H        12.3158896280        3.7305998920       14.2160169639
  C        11.3866250543        2.0695188912       15.0508130873
  S         8.1622972067       10.3790732021       13.0384660468
  N         7.6669459646        9.8846062595       14.5441464775
  C         7.0132983612        7.6312663509       15.5190742860
  H         6.7264362085        5.5130672558       15.9061535751
  H        11.6327220065        7.3812888411        5.4606631038
  H        12.2147361354        7.1777086258        3.7349539265
  C        13.1780269572        5.8572579777        5.0601430539
  H         9.1438046649        7.3450760357        4.4387466913
  H         9.9177857704        7.0730751386        2.7896984349
  C         8.3641073053        5.7398332054        3.3339188490
  H        11.8230780199        4.8479235077        1.8241004187
  C        11.9463665693        2.0125251702        1.2302878142
  H        10.5715116803        2.4075606820       15.6917764136
  H        10.9990263385        1.1355028969       14.6777343953
  C        12.6132621317        1.8364086115       16.0016528493
  C         6.7264745893        8.2310701203       16.7458575688
  H        12.9828224722        4.9744679069        5.7620580025
  H        13.6681261762        5.5314705782        4.1517583691
  C        14.1633305205        6.7380446594        5.8498116888
  H         7.6232028585        5.5478088110        4.1294719016
  H         8.6069798012        4.8710365398        2.6850360708
  C         7.4742393180        6.5519858513        2.3604529227
  C        11.8265750772        0.6299075867        1.0449879160
  C        12.3047634730        2.7960738257        0.0329536289
  H        13.5265786669        2.4394728984       15.8277295760
  H        12.7782428423        0.7769771633       16.0656252818
  C        12.3111697415        2.3098112661       17.3890816871
  H         7.0046263382        9.2325106754       16.7556058798
  C         6.3497870323        7.7559581784       17.9780604752
  H        13.6128677808        7.2322198243        6.6753902969
  H        14.4314559994        7.4808670201        5.0961645156
  C        15.3712301527        6.0420117937        6.4642714433
  H         7.2130357514        7.4748486587        2.7911610640
  H         8.1488875825        6.8420206142        1.5373612617
  C         6.2825332078        5.7370475925        1.8536020793
  N        11.5058810439       -0.2110477801        2.0474603056
  C        12.2267581768       -0.0319526898       -0.1172663809
  C        12.6315572361        2.1236917249       -1.1225484087
  H        12.6068129578        3.8464882038        0.1192218282
  H        11.7923391658        3.2933718958       17.3061463603
  H        13.1810854482        2.5179800379       18.0357850738
  H        11.6341609693        1.6705407328       18.0748882272
  S         5.9402097141        6.1659495114       18.5141120681
  C         6.2555160354        8.7765704767       19.1301703753
  H        15.6549633927        6.4041403947        7.4140938043
  H        15.0734649099        5.0457273355        6.7504811305
  C        16.5503947085        5.9796750749        5.4498008678
  H         6.5042359819        4.7299378636        2.1133282102
  H         6.1214164586        5.8408049086        0.7818115723
  C         4.9471557469        6.1149467035        2.5793368495
  S        11.4526865697       -1.7148931516        1.4630798428
  N        12.1562887540       -1.4475021419       -0.0133425899
  C        12.6304779751        0.6130818636       -1.2854993516
  H        13.1599743205        2.6612683438       -1.9267508255
  C         5.8159960226        6.9153629848       20.0961621559
  N         5.8181725544        8.2623255721       20.2335691580
  O         6.4401988082        9.9266966651       19.0116371636
  H        16.3302421385        5.5581490511        4.5029690852
  H        16.8598548618        6.9455132669        5.1601854090
  C        17.7396627658        5.1221422137        6.0160930657
  H         4.1627667086        5.4952954964        2.2300546361
  H         5.0707366605        6.0336422333        3.6669492800
  C         4.4873480096        7.5269044707        2.4893387938
  C        12.9863205624       -0.1427236028       -2.4690752040
  S         5.4138865707        5.9866614610       21.5146827903
  C         5.5812857264        8.9592884999       21.4304800145
  H        17.2632830394        4.1661452815        6.3866393862
  H        18.4107338660        4.8250627072        5.1603975540
  C        18.4906201999        5.7724742524        7.1195969951
  H         4.9280310162        7.9972605309        3.4177599643
  H         3.3823458754        7.6872743819        2.7598972473
  C         4.9191401181        8.2356454501        1.1579247036
  H        12.8737914130       -1.2178531519       -2.3974912835
  C        13.3758068424        0.1789011686       -3.7226769492
  H         4.9193865768        8.4436972722       22.0975720020
  H         5.3081599969        9.9623514312       21.3070564997
  C         6.8322174655        8.9825463229       22.3073800131
  H        18.4047011565        5.2505748441        8.0600459955
  H        18.3118276681        6.8245949929        7.3018863400
  C        19.9538966514        5.7909405376        6.7537187016
  H         5.9926584009        8.2586262242        0.9001808600
  H         4.4161261237        7.5881688528        0.3785729985
  C         4.5066101210        9.7067741845        0.9439254536
  S        13.9702321942        1.7319763084       -4.1077207101
  C        13.4856571509       -0.9062535639       -4.8071883095
  H         6.9428407232       10.0311322732       22.6835109083
  H         7.7025213637        8.6592784799       21.6616606224
  H         6.8199203354        8.2940402636       23.1464178377
  H        20.6019932166        6.1310497639        7.6331544926
  H        20.3481292045        4.7885899045        6.6402909143
  H        20.1816456999        6.4435917243        5.8993807778
  H         4.9712948415       10.2782796783        1.6759585726
  H         4.8784157761       10.1407484925       -0.0111668720
  H         3.4559219157        9.9095453303        0.9273274382
  C        14.1597242326        1.0316176591       -5.7132567979
  N        13.9949474861       -0.2832872265       -5.9001774497
  O        13.2431533365       -2.1230527041       -4.6569071495
  S        15.1090139536        1.8870735708       -6.9987994752
  C        14.2235312846       -1.0145082566       -7.1716304075
  H        14.2094498491       -2.0919487112       -6.9011293777
  H        15.1826551321       -0.7011215488       -7.6097961171
  C        13.1024424322       -0.6946242544       -8.0864399240
  H        12.6625732143        0.2634372276       -7.8783656234
  H        12.3261618858       -1.4549461538       -7.9496015257
  H        13.3661850269       -0.6006668770       -9.1286511315
  H        -3.4237796778       15.1155525807       16.1609332902
  C        -3.4733593641       13.9520016417       16.2915097772
  H        -4.4216694352       13.6851572957       16.6363751112
  C        -2.3578785757       13.5335931797       17.2352081596
  C        -3.2733187011       13.2856494770       14.9442979253
  C        -2.4481466031       14.0057843753       18.6956541122
  H        -2.4070006373       12.4044987098       17.1966862649
  H        -1.4290949362       13.8122723970       16.7888889348
  H        -2.3777387075       13.6319497426       14.5631497427
  H        -3.1845342897       12.1846443898       15.0461322403
  H        -4.1160230786       13.3658889309       14.2797401462
  C        -1.8218145200       12.9805841020       19.6571324668
  H        -3.4809219518       14.2535903888       19.0264992305
  H        -1.8262517689       14.8989546056       18.7530654826
  C        -2.2113838902       13.1490799268       21.0786424950
  H        -2.0051069513       11.9368027239       19.4195503321
  H        -0.7468862018       13.1469966216       19.7378705077
  C        -1.2500458927       12.4580247304       22.0635067300
  H        -3.1545016241       12.6447767032       21.2720019659
  H        -2.4551432639       14.1660278967       21.2572748430
  C        -0.2179586455       13.3600741334       22.5622709085
  H        -1.8117234307       12.2000138350       22.9524534189
  H        -0.9354204636       11.4649917487       21.6681036287
  C         1.0085482377       12.7221190381       23.3035265327
  H         0.1078326827       13.9870063371       21.7149666390
  H        -0.6697342618       14.0703574776       23.2346637358
  C         1.3740708204       11.3626613430       22.5864472796
  C         0.6496182128       11.9896672596       24.5337856828
  C         2.1512288775       13.7114045663       23.5183534941
  C         1.2347378058       10.2704315140       23.4393712886
  C         1.7714243835       11.0041813194       21.3540582600
  C         0.7500314450       10.6506505374       24.6953825276
  C         0.1629798570       12.6406899853       25.6689673733
  H         2.3206650918       14.1412936944       22.5311483776
  H         1.7825802906       14.5337068121       24.0881218952
  C         3.4263694171       13.0610231184       24.0432524164
  S         1.5790786576        8.7372828434       22.6620274423
  C         1.9573026463        9.6350353979       21.2709583118
  H         2.0489504225       11.7942976336       20.5511809657
  C         0.3066764032       10.0355306897       25.8257416612
  H         0.0430360559       13.7193158422       25.5142054458
  C        -0.1932668369       12.0741105428       26.8178146380
  H         3.7983267122       12.3053176661       23.2811888761
  H         3.1337258242       12.5717729990       24.9957633353
  C         4.5426081646       13.9443419351       24.4377438056
  C         2.5220683613        8.9535201541       20.0413581315
  C        -0.1677243379       10.7067418069       26.9671864460
  H         0.3964128283        8.9861966188       25.9299782401
  C        -0.6128992308       12.5246558923       28.0154513745
  H         5.1838891115       13.5387421772       25.2343417577
  H         4.1008343102       14.7790024478       24.9822010662
  C         5.3828377380       14.4387328978       23.2398330058
  C         2.4788912216        7.6021859137       19.7894792870
  C         2.8396721292        9.8764403993       18.8521540692
  C        -0.6023664424       10.1575639669       28.2698137657
  C        -0.8365390641       11.4878923160       28.8646610150
  S        -0.8441074005       14.0831876613       28.6213780870
  H         6.1838518095       14.9764103720       23.6226075826
  H         4.7086925127       15.1877622271       22.7445572902
  C         6.0890197254       13.4820737370       22.2737888656
  N         2.3291354724        6.6015667652       20.7692770591
  C         2.7254740049        7.1100051289       18.5536320195
  C         3.1301258372        9.3910252227       17.6120332773
  H         2.8983484750       10.9254988321       19.0703748125
  C         0.5008137746        9.3939222485       29.0046529279
  C        -1.9391302121        9.3257703627       28.1599062607
  C        -1.1333044600       11.9229780362       30.1477849141
  C        -1.2178978111       13.2715996404       30.1863786409
  H         7.1610739374       13.4068885769       22.4824818056
  H         5.7513834890       12.4748821490       22.3801102788
  C         5.8090026945       13.9331829100       20.8098428627
  S         2.3918301169        5.1761482431       20.0293403827
  N         2.5754066611        5.7238033252       18.5163938433
  C         3.0260484057        7.8854377920       17.4173149602
  H         3.2910981721       10.1096095829       16.8596130072
  H         1.0589595461        8.8861375357       28.2241129556
  H         0.0177178709        8.6536784520       29.7017159361
  C         1.7377400488       10.0416312330       29.7599929734
  H        -1.7848914211        8.4413701328       27.6228966893
  H        -2.1689076931        8.9451657642       29.1437314648
  C        -3.2335953878        9.9438421778       27.6130945831
  H        -1.3176137930       11.1448315565       30.8900248944
  C        -1.4754665630       14.0868652151       31.4580198593
  H         6.1652535537       14.8864322959       20.5609953787
  H         4.7359752257       14.0401562631       20.8957840184
  C         6.2831864783       12.9911912575       19.6204512662
  C         3.2848947887        7.2376799886       16.1848437192
  H         2.3744673054       10.4932574644       28.9884766139
  H         1.3927396841       10.9171854514       30.3115072825
  C         2.4526361825        9.0398304922       30.7393375634
  H        -2.9090608173       10.3626172325       26.6599145067
  H        -3.5543651981       10.8590544721       28.1290947962
  C        -4.4545036517        8.9776239235       27.4525320337
  C        -1.6245353754       15.5139320144       31.5615851248
  C        -1.5822818464       13.3980582648       32.7872984929
  H         6.8152257700       12.1504578435       19.9995816579
  H         5.3728414581       12.5930971584       19.2167771834
  C         6.9959064659       13.7285774118       18.4288028579
  H         2.9862815788        6.1487122842       16.1461777852
  C         3.6051251366        7.6486531302       14.8942796688
  H         2.9762033550        8.2783048550       30.1661576971
  H         1.7943886205        8.4184908193       31.4010402056
  C         3.5719498845        9.6858346510       31.5493399612
  H        -4.2559301480        8.1428412414       26.7469445071
  H        -4.6351778044        8.4198034580       28.3715814902
  C        -5.7077628045        9.7006708163       27.0975344138
  N        -1.5318886060       16.3166194245       30.4359820711
  C        -1.9023046664       16.1474183489       32.7464356460
  C        -1.8637351909       14.0461299602       33.9946004053
  H        -1.6062029480       12.2987645598       32.9156415485
  H         6.3750316464       14.5079767617       18.0696720643
  H         7.9385000181       14.1585396588       18.7351270497
  H         7.1259640819       13.0265078543       17.6418629383
  S         3.8115572990        9.2664246353       14.4199273526
  C         3.6326561025        6.6815915085       13.8324752594
  H         3.4347745988       10.7625759885       31.4952748070
  H         3.3628698502        9.4571521982       32.6403788951
  C         5.0046549688        9.1861397408       31.3128069717
  H        -5.7990999410       10.4419181574       27.8473571993
  H        -6.5684089221        8.9866610419       27.1778924030
  C        -5.7096507633       10.2917028991       25.6840091738
  S        -1.4847371049       17.8580271113       31.0214503315
  N        -2.0141353494       17.4642259263       32.5086566763
  C        -2.0816193838       15.5349091610       33.9978537167
  H        -2.1510917344       13.3593497833       34.8353651244
  C         4.2615022469        8.6217045465       12.8377704130
  N         4.1700920640        7.2580656419       12.7703541808
  O         3.5307393117        5.4806045812       13.9787911301
  H         5.6806125740        9.9381600775       31.7609589369
  H         5.1744766202        8.9943093222       30.2438536911
  C         5.2872789272        7.9624393693       32.1466483751
  H        -4.8903206792       11.0609287281       25.7791714240
  H        -5.3369729838        9.6378633298       24.9765511111
  C        -7.0651853610       10.9170403548       25.2904289285
  C        -2.3914208437       16.3099656937       35.1269300177
  S         4.9318392171        9.5304563935       11.4954888599
  C         4.4244087436        6.5735115424       11.5077454833
  H         6.0871834488        8.3913842806       32.7285786984
  H         4.4523900422        7.8268634400       32.8116213064
  C         5.7011457887        6.6752554490       31.4345191699
  H        -6.9868380097       11.4277908062       24.3589606465
  H        -7.1500593414       11.7159523738       25.9419369377
  C        -8.2316263600        9.9623487934       25.0871413011
  H        -2.2580515911       17.3882676817       34.9597588546
  C        -2.8685580612       16.0322224648       36.3686046677
  H         5.2599380984        6.9362671283       10.9721357606
  H         4.5532124570        5.5012731612       11.6273859754
  C         3.1580306784        6.6221447241       10.6956596407
  H         4.7469831513        6.1630124540       31.2829778314
  H         6.2370766610        6.0269111889       32.1929984164
  C         6.6546310905        6.9189100876       30.2597884765
  H        -8.8776845101       10.1980659360       24.2401225759
  H        -7.7904665771        8.9661823056       24.9501257267
  C        -9.0681234554        9.8352711217       26.3437883730
  S        -3.3904195289       14.6014019986       36.9582140633
  C        -2.9581454995       17.1939202656       37.2771926221
  H         3.0312602319        5.8887826787        9.9201937980
  H         2.2773950582        6.5171105892       11.2942432736
  H         3.0939206600        7.6196620828       10.2036611250
  H         5.9062228309        6.9537128282       29.3562159870
  H         7.3051818738        6.1012335770       30.1121114813
  H         7.1583508965        7.8562140260       30.3320354522
  H        -9.7191358205       10.6962691019       26.2417186221
  H        -8.4496222853        9.9753289589       27.2148858680
  H        -9.7848389140        9.0042081190       26.4737427961
  C        -3.9553031542       15.5328408749       38.3758867455
  N        -3.5955596091       16.8175007945       38.4137017130
  O        -2.6158694613       18.3488432002       37.0644298032
  S        -4.6232857521       14.8597747142       39.8908002907
  C        -3.7685802922       17.7491115135       39.5418912518
  H        -3.7021084721       18.7645094519       39.1532153255
  H        -4.7463638458       17.5364538966       40.0415395058
  C        -2.4806228772       17.6665028935       40.4718540674
  H        -2.6412302300       18.2120431780       41.3926259791
  H        -2.2084534791       16.6455315353       40.7712656943
  H        -1.5916191560       18.1975731758       40.0349856515
