352
i=
  H         4.5654250034        3.2704605998       12.9834426676
  C         3.6563139330        2.6932936488       12.9686722039
  H         2.9433240155        3.4815061076       12.7241743037
  C         3.4435545762        1.8764263974       11.7188469241
  C         3.4333109656        1.9652304683       14.2787968655
  C         4.2015898232        2.3836318458       10.5335196263
  H         2.4122903943        1.7629757925       11.4402625339
  H         3.7591164376        0.8715034380       11.9049343045
  H         2.5046370873        1.5882244239       14.6225355006
  H         3.7512091873        2.5872588041       15.0923094038
  H         4.0945061222        1.1042421471       14.3636229063
  C         4.6863079965        1.3322899473        9.5184454420
  H         3.5915446511        3.0105202791        9.9892844806
  H         5.1138911406        2.9466306077       10.8750591766
  C         5.5420227559        1.9560892239        8.3655906350
  H         3.8185560227        0.8337394492        9.0127958238
  H         5.2974895244        0.5740756716       10.0282650528
  C         6.7195984905        2.8294656333        8.5938681076
  H         4.8176804133        2.6062241599        7.8207679808
  H         5.7693897848        1.1319910265        7.7230672110
  C         8.0552677240        2.0326863791        8.8177971066
  H         6.8351464655        3.4736016395        7.7000020608
  H         6.3965974706        3.6183868085        9.3413934238
  C         9.2471614701        2.9377581902        9.0838701245
  H         8.2331019770        1.4193594684        7.9253666863
  H         7.9655403404        1.2650864360        9.5303274108
  C         8.9743332686        4.2832265830        9.8439078584
  C         9.6781141700        3.6772617691        7.8474183576
  C        10.4430283676        2.2526775802        9.7386540523
  C         9.1181962038        5.4117406738        9.0253939513
  C         8.6019448549        4.7365232872       11.1489735791
  C         9.6284492201        5.0191628686        7.7827882660
  C        10.0945799397        3.0308140073        6.6187998708
  H        10.0627467305        1.9452284871       10.7259428262
  H        10.6331202657        1.3395088394        9.2717784376
  C        11.6664656715        3.1857064981        9.9257582629
  S         8.6285085788        6.9015123401        9.6789257076
  C         8.4209382602        6.0985441620       11.1933040579
  H         8.4894003225        4.0431192140       11.9300769029
  C         9.9208153507        5.6350303398        6.6043197507
  H        10.1045267268        1.9993418077        6.7800198672
  C        10.3596068447        3.6730538135        5.4763870903
  H        11.3725636999        4.1825977401       10.1708538676
  H        12.2422911248        3.2924128912        8.9591807648
  C        12.6544815527        2.7457714484       11.0302158228
  C         7.9144292974        6.7747285661       12.4144570617
  C        10.3606694308        5.0204398935        5.4279876804
  H         9.6658653640        6.7204879934        6.6160996441
  C        10.7949462441        3.3128062362        4.2122892351
  H        13.5641298652        3.3132384532       11.1542410523
  H        12.9799829579        1.6950739160       10.9006786174
  C        12.0151887627        2.8777434024       12.4529053308
  C         7.8956250148        8.1463292896       12.7471793959
  C         7.4046547111        5.9468796477       13.5188819240
  C        10.8175162962        5.7405002621        4.1769834071
  C        11.0618685513        4.4342194285        3.4116325006
  S        11.1383504123        1.8113736412        3.4841503148
  H        11.4594749729        3.7850596377       12.5631744262
  H        11.2168393177        2.0863387317       12.5108813300
  C        13.0890220759        2.7945335545       13.5252009879
  N         8.4738674247        9.1604780518       11.9200444007
  C         7.6387420041        8.7011963412       13.9716399131
  C         7.0149722711        6.4331851968       14.7186038365
  H         7.2037121250        4.9511296751       13.3296355328
  C        12.1199377581        6.5574285415        4.5611280698
  C         9.7594572617        6.5643478734        3.5256070629
  C        11.5536399835        4.0457382690        2.1566717572
  C        11.5689686426        2.6797863122        2.0321744880
  H        13.3477618242        3.8510705030       13.6127075472
  H        13.9722664319        2.2015807583       13.1907889740
  C        12.5468215842        2.2757233282       14.8964966254
  S         8.2958849121       10.5807252572       12.5617014999
  N         7.7326811093       10.0930618109       14.0088454592
  C         7.1400912423        7.8819201830       14.9617985676
  H         6.6035903594        5.6577658581       15.3517007886
  H        11.8983060904        7.2376982114        5.3653966746
  H        12.4295106057        7.1728830370        3.8098098962
  C        13.3359834633        5.6179431996        4.9204180957
  H         9.6686031397        7.4954242382        4.1520298127
  H        10.1306246133        6.7985332148        2.5473285034
  C         8.4352014071        5.8596991064        3.3497488094
  H        11.9330950738        4.8464293247        1.5436226999
  C        12.1039980180        1.9796214200        0.8054208197
  H        11.9835019729        3.0488347412       15.4205363297
  H        11.7507078313        1.4612515420       14.8439832537
  C        13.5967271771        1.8810853192       15.9274008600
  C         6.7727970231        8.5138435304       16.2194419020
  H        13.1317506372        5.3183676024        5.9777535786
  H        13.2913508815        4.7168471733        4.3913600387
  C        14.7368298637        6.2260213421        4.7373573561
  H         7.9924657820        5.7337075081        4.3111862160
  H         8.6645349462        4.9052525977        2.8994370704
  C         7.3712082175        6.6683404618        2.5991299924
  C        12.0607404530        0.5589490002        0.6450620187
  C        12.4818299873        2.6481469740       -0.4216301180
  H        14.5763698333        2.1310972198       15.6732699175
  H        13.6348552289        0.7876117594       16.0829118570
  C        13.3093928080        2.5297855536       17.3318655185
  H         6.7911842589        9.6203518958       16.1285120423
  C         6.6144168312        7.9695228192       17.4631397451
  H        14.7253990357        7.2865324585        5.1235392270
  H        15.0165740879        6.3102522535        3.6748516904
  C        15.7239908664        5.3929725613        5.5243577869
  H         7.2157987079        7.5938588820        3.1359388491
  H         7.6542663523        6.9039606236        1.5477730868
  C         6.0727851966        5.8273321024        2.5672095849
  N        11.7919389117       -0.3823732008        1.5992295286
  C        12.3603484499       -0.0717491387       -0.5613056548
  C        12.7565532453        2.0191652403       -1.6733059458
  H        12.6814591663        3.6923017036       -0.3245269883
  H        12.3634397287        2.1578881601       17.7869189165
  H        13.3555186263        3.7186263783       17.2538337770
  H        14.1378502061        2.3873856682       17.9395140801
  S         6.5829239858        6.3505998427       17.9556605953
  C         6.4002577484        8.9025544978       18.6354921781
  H        15.1435405704        5.0478309573        6.3906802465
  H        16.0542244777        4.5332320474        4.8450112774
  C        17.0142951195        6.1202464703        5.9830871447
  H         5.6466478029        6.1203614553        3.4990808614
  H         6.1410379455        4.7407443750        2.5976462609
  C         5.2145905291        6.3623699182        1.4190896802
  S        11.6862389163       -1.8639629058        0.9109487103
  N        12.3284335889       -1.4434062026       -0.5141625648
  C        12.7778298923        0.5507670939       -1.7339072708
  H        13.0881967916        2.6327041830       -2.5369335342
  C         6.1276759429        6.9541343159       19.5492146793
  N         6.0040304283        8.2481887124       19.6988275699
  O         6.4656250050       10.1602056152       18.4592565903
  H        17.6081486684        6.1746503474        5.0749298017
  H        16.8697905537        7.1644214880        6.3523747278
  C        17.8263633966        5.3911833113        7.0739733882
  H         5.8328601841        6.5364597949        0.5609808348
  H         4.5892863694        5.4427254437        1.1806196268
  C         4.3586233870        7.5835777356        1.8752348930
  C        12.9972314879       -0.2809285190       -2.8852763688
  S         5.7796961531        6.1102277442       21.0295270631
  C         5.9003026279        8.9508207193       20.9036504947
  H        17.1682451770        5.1952585133        7.9023022896
  H        18.0493454320        4.4540594904        6.5873458114
  C        19.0758108897        6.0420083431        7.4896476647
  H         4.7178003939        8.1238964889        2.7699012030
  H         3.3112103752        7.2855601600        2.1176171566
  C         4.1759308422        8.5401870951        0.8489752720
  H        12.6243386515       -1.2684135292       -2.7635824643
  C        13.4214936615       -0.0362472364       -4.1560697436
  H         5.1292132859        8.5936274332       21.5610971731
  H         5.5756908091        9.9689696253       20.6393999869
  C         7.2681483398        9.0101593916       21.5453712913
  H        19.4784372123        5.4426360595        8.2846494445
  H        18.8702066739        6.9998215005        7.9365988642
  C        20.1680753988        5.9790639742        6.4780360120
  H         5.0822488382        8.7031538392        0.2609479451
  H         3.3937305243        8.2143998414        0.1410473286
  C         3.7165359006        9.9447480525        1.2579421576
  S        13.9291970879        1.4583038662       -4.7891455051
  C        13.4390859393       -1.1751296485       -5.1273564795
  H         8.0186853106        9.3754721861       20.8352822343
  H         7.7271078518        8.0824678982       21.8695164846
  H         7.2861640865        9.7584546658       22.2873946797
  H        20.5815460477        5.0524219979        6.0082621296
  H        19.8588542848        6.6057668723        5.6620625765
  H        20.9862182855        6.5195048278        6.8485449119
  H         3.0667263584        9.8667300433        2.1432999008
  H         4.6709105801       10.5356449384        1.4026045471
  H         3.0280329334       10.5004926631        0.5926174812
  C        14.2245150399        0.6088166096       -6.3077816908
  N        13.9293083506       -0.7087809640       -6.3095903610
  O        13.2560078015       -2.3238962477       -4.8456713449
  S        14.8492400134        1.4171340027       -7.7568159015
  C        13.9573075558       -1.5664813256       -7.4634751328
  H        14.2326407143       -2.5997794669       -7.1349778056
  H        14.6789130761       -1.1818556261       -8.2003873856
  C        12.6841047925       -1.5448478240       -8.3402567425
  H        12.7830823725       -2.2695818211       -9.1021420936
  H        12.5491075722       -0.6328756403       -8.8440582136
  H        11.7722242756       -1.8492767969       -7.7842017028
  H        -3.7285522565       14.8842835057       16.2427205870
  C        -3.3030196356       13.8851286758       16.1682404478
  H        -4.1207446517       13.1420830365       16.3000329980
  C        -2.3224041800       13.6393627081       17.3448346109
  C        -2.5978049862       13.6036526455       14.8161037578
  C        -2.8278810029       13.9017646532       18.7493469867
  H        -2.2206622414       12.5957415084       17.3237647250
  H        -1.3574342650       14.1147229182       17.1721309307
  H        -1.7229725663       14.3185256519       14.6738024684
  H        -2.2450842160       12.5648802423       14.7849936922
  H        -3.2987940124       13.8162494693       14.0739918744
  C        -1.7451035114       13.7383427351       19.8390321417
  H        -3.6865427537       13.3136429400       19.0166318136
  H        -3.1578258124       14.9804110804       18.8365936864
  C        -2.3190629023       13.8056908558       21.2800898458
  H        -1.3949541583       12.7755876873       19.6791707764
  H        -0.8957042924       14.4426751362       19.5902816251
  C        -1.3909733825       13.1755981535       22.3217540466
  H        -3.2122180697       13.1951586326       21.3784890044
  H        -2.4905677501       14.8299423293       21.5350121090
  C        -0.0711150724       13.9805190786       22.5650512019
  H        -1.9362715117       13.1207146486       23.1727584925
  H        -1.1596814760       12.1258898605       22.0209460818
  C         1.0827765878       13.2051656991       23.2105430871
  H         0.2839615690       14.3853955358       21.6455516292
  H        -0.3332604178       14.8580365691       23.0591038097
  C         1.2324370090       11.8882113097       22.4205635198
  C         0.6004928694       12.4817327641       24.3612147802
  C         2.4415135419       14.0140089421       23.2857133328
  C         1.0144916736       10.7726597909       23.2173206900
  C         1.6048727251       11.4642297560       21.0922210610
  C         0.6176615984       11.1072743571       24.4798302091
  C         0.1390046606       13.1117961247       25.5241098571
  H         2.5288448318       14.6027486553       22.3267816844
  H         2.2982263280       14.6736756632       24.1355984569
  C         3.6805552173       13.1432066451       23.6572571833
  S         1.3155370464        9.2325182248       22.4187501591
  C         1.8131506517       10.1155859815       20.9490646805
  H         1.7343465274       12.2410875931       20.3143360353
  C         0.2661353796       10.5152464595       25.5654064518
  H         0.1782359929       14.1991071858       25.6538175558
  C        -0.2250037841       12.4500873212       26.7044005857
  H         3.9251000558       12.4533862769       22.8715620157
  H         3.3847511265       12.4940278445       24.4887450610
  C         4.9014071704       13.8753249218       24.0314377507
  C         2.3139760684        9.4119309931       19.7716055571
  C        -0.2681127254       11.1040765983       26.7286617413
  H         0.3310430800        9.4624481376       25.6406267613
  C        -0.6543651347       12.8138002431       27.9347597243
  H         5.5906418692       13.1556036941       24.3379746601
  H         4.6760643884       14.3720469136       25.0316742704
  C         5.4315629057       14.8074169962       22.9675204418
  C         2.3721592386        8.0201962426       19.5399471513
  C         2.5925320805       10.2233434208       18.5455200663
  C        -0.6489921072       10.3357905002       27.9509343789
  C        -0.9222151756       11.6658267172       28.6393652126
  S        -0.9701711660       14.3324003970       28.7111566139
  H         6.2944527842       15.3424886777       23.4448014358
  H         4.7062497994       15.5723347503       22.7092697849
  C         6.1140861378       14.1185626423       21.7857237626
  N         2.0063651851        7.0211537885       20.4861822885
  C         2.6638474405        7.4208543667       18.3628406008
  C         3.0356269426        9.6578113248       17.3826914060
  H         2.5534747220       11.3484416776       18.5469255302
  C         0.5404701570        9.5238784826       28.5586341379
  C        -1.9238889069        9.5160342345       27.7420068261
  C        -1.1146774437       12.0581727852       30.0185305041
  C        -1.2255781196       13.3782799358       30.1791389086
  H         6.8173364983       14.8493603889       21.3126511386
  H         6.6952023487       13.3225886651       22.1243754191
  C         5.2206177358       13.6170276645       20.6224252969
  S         2.0163713713        5.5692571492       19.7645381927
  N         2.5956194711        6.0534307484       18.3250413378
  C         3.0972928763        8.1721613995       17.2450049702
  H         3.3570870391       10.3430050148       16.6026814673
  H         0.7810947139        8.7758723406       27.7699347824
  H         0.2149983264        8.8685108302       29.3685838229
  C         1.7805004593       10.2975551551       29.0205567955
  H        -1.5830309211        8.6513646317       27.1681899112
  H        -2.3100359247        9.2828448693       28.8089530804
  C        -2.9860016747       10.3012034445       26.8417769474
  H        -1.0696585572       11.3125700499       30.7441743379
  C        -1.4999659511       14.0401279624       31.5010667407
  H         4.3219530910       14.2800723484       20.6756414545
  H         4.8648219429       12.6047768982       20.6923238688
  C         5.8955431306       13.9457547834       19.2635489691
  C         3.3228631850        7.4675592644       16.0497691662
  H         2.0029086592       11.0099548449       28.1260819137
  H         1.4172490357       10.8826242610       29.9001892920
  C         2.9956052015        9.5755800082       29.5676870902
  H        -2.6862726426       10.5819138818       25.8292008660
  H        -3.2794099927       11.2320751756       27.3355313639
  C        -4.3007327816        9.5594144749       26.6779587181
  C        -1.5637153093       15.4378387878       31.7128273669
  C        -1.8769976576       13.1793370016       32.7245640555
  H         5.3194644526       13.4721660098       18.3757925673
  H         5.8479237098       15.0138690445       19.1940181584
  C         7.3517004986       13.5604751160       19.0815032104
  H         2.9110572359        6.4709819846       15.9313181588
  C         3.7013453139        7.8357057985       14.7546283101
  H         3.3758120592        8.8039748010       28.8938923329
  H         2.6585765559        8.9817539673       30.4434558101
  C         4.1709889469       10.4609632052       29.9878670920
  H        -4.1361532819        8.7894375037       25.9120373526
  H        -4.5635622880        8.9603625611       27.5313719853
  C        -5.5522100885       10.4009282644       26.4726254728
  N        -1.1343819711       16.4164532413       30.7912228906
  C        -1.8937497407       15.9648606085       32.9658255449
  C        -2.2396369078       13.7199775667       33.9377703697
  H        -1.9843652533       12.1241445954       32.5818139255
  H         7.4929167894       12.4648085074       19.0048664605
  H         7.8145604442       14.1089332022       18.2487371594
  H         7.9910824320       13.7184988214       19.9200806871
  S         4.1273036988        9.4349310829       14.2274143660
  C         3.6901348493        6.8046858076       13.6931153632
  H         4.4480418216       10.9676222568       29.0950902643
  H         3.8527361040       11.1475060574       30.7974943285
  C         5.4863436254        9.6799582940       30.2464040302
  H        -5.2037662063       11.1648319536       25.7580464879
  H        -5.8606209822       10.9586659130       27.3730644917
  C        -6.6742722964        9.6588648128       25.8831218742
  S        -1.4555791426       17.8212794740       31.5109638764
  N        -2.0613393016       17.3480388317       32.8763648121
  C        -2.2923337116       15.2041762183       34.1097570406
  H        -2.4728736213       12.9881128571       34.7165642823
  C         4.3330019801        8.7317312116       12.6156529305
  N         4.2078141097        7.3873527640       12.5767098925
  O         3.5091153009        5.5992234144       13.8789205838
  H         6.1802104389       10.5086850668       30.4439084029
  H         5.7202915954        9.2006080288       29.2759476636
  C         5.4426622646        8.4539774602       31.2368702251
  H        -6.3544438722        9.0758067494       24.9844628046
  H        -7.0995780729        8.8243984305       26.4740118561
  C        -7.7232126200       10.6114336091       25.2782464727
  C        -2.6575444289       15.9369189291       35.2682511104
  S         4.7760963575        9.5241785258       11.1203059823
  C         4.1391799070        6.6626116899       11.2857157974
  H         5.9780832099        8.7141468784       32.1081305513
  H         4.4499920853        8.3725742376       31.5806178312
  C         5.8946788235        7.0654345164       30.7924901605
  H        -7.3162990048       11.0051332008       24.3716486427
  H        -7.9134114550       11.4260337179       25.9188872062
  C        -8.9400637077        9.8069356234       24.8451846385
  H        -2.4493518686       17.0079510238       35.3350849827
  C        -3.1491965526       15.5663967338       36.4819085548
  H         4.8610199219        6.9802064911       10.5844482941
  H         4.4545006770        5.6493534636       11.3803128296
  C         2.7804736006        6.7604716625       10.5757880118
  H         6.3795050006        7.0816666232       29.7866912559
  H         4.9850569683        6.4679179813       30.6487888669
  C         6.9118054562        6.4808678194       31.7263195934
  H        -9.4573930563       10.2446982951       23.9209464366
  H        -8.6638542065        8.8013815297       24.6313308525
  C        -9.9714464194        9.7707885982       25.9495303173
  S        -3.7471233053       14.0416360338       36.8906778589
  C        -3.2403203425       16.5805615178       37.5720983357
  H         2.7890045822        7.5957025978        9.8893227503
  H         2.6858564065        5.8295160495        9.9999999569
  H         1.9261656640        6.8958257436       11.2463951411
  H         7.8047936417        7.1028692018       32.0510299082
  H         7.3766485423        5.6157131776       31.3329758222
  H         6.3559315495        6.0328693861       32.5834833547
  H       -10.9266792538        9.4139535798       25.5451892786
  H       -10.1436264551       10.7328115300       26.3656682349
  H        -9.6317745453        9.2829844368       26.8396296800
  C        -4.1511318187       14.7777904644       38.4305069494
  N        -3.9246106639       16.0727707891       38.5836867118
  O        -2.7992167737       17.7091367488       37.4922278240
  S        -4.9738298891       13.8844849236       39.6968196249
  C        -4.2508521373       16.7543271574       39.8211645007
  H        -4.4611348729       17.7907053073       39.5622070013
  H        -5.1134323723       16.3463768657       40.3441184713
  C        -2.9739006908       16.6892633785       40.6835917061
  H        -2.0913284937       16.4752720325       40.1181325422
  H        -2.8652370828       17.7034595597       40.9283320323
  H        -3.1616700098       15.9999829649       41.5114477178
