352
i=
  H         1.9719301062        0.7510473231       12.5872259300
  C         2.7324839239        1.6305662982       12.4330552439
  H         3.7268356701        1.2405130530       12.3479403141
  C         2.3340252134        2.3176479272       11.0808599387
  C         2.5565964857        2.6090903788       13.6705597720
  C         3.6007478937        2.6764852187       10.2068118844
  H         1.7026911290        3.1796280923       11.2198299533
  H         1.6022268315        1.6369091767       10.6643131972
  H         3.5201717999        3.1158322663       13.9673489252
  H         2.2529818769        1.8700087064       14.4564103159
  H         1.7722104960        3.3304522958       13.4771717425
  C         4.2950007090        1.4953145365        9.5633087804
  H         3.1443786678        3.2798626485        9.3995601750
  H         4.2525164376        3.4256041971       10.7851417122
  C         5.1034611746        1.8248935345        8.2486922934
  H         3.5995481348        0.6717514700        9.4262331122
  H         4.9883992572        1.1593450894       10.3343071785
  C         6.2570275162        2.8046735229        8.5546691868
  H         4.4139978424        2.2942083191        7.5555150485
  H         5.5159472642        0.9497600632        7.7740282323
  C         7.4628881471        2.0878853110        9.1268869792
  H         6.5027309694        3.1663989683        7.5519688255
  H         5.9148187351        3.4876287924        9.2936584030
  C         8.7768425067        2.8929802538        9.0988400290
  H         7.6206803116        1.1245740501        8.6235831822
  H         7.2177942580        1.9284359689       10.1774674474
  C         8.4753205296        4.2182806952        9.8191475263
  C         9.2553637180        3.5735243832        7.9263258673
  C        10.0377873920        2.1724054736        9.7088566542
  C         8.8586753402        5.3238598806        9.0965733119
  C         8.0621956216        4.5959858603       11.1289725231
  C         9.2826978072        4.9352241741        7.8779282333
  C         9.7961347604        2.9811836735        6.7889397433
  H         9.7378616263        1.5829648661       10.5664424165
  H        10.1765465671        1.3798724929        9.0349436415
  C        11.2252541568        3.1162469506        9.9604168217
  S         8.6389326459        6.8158071893        9.8775903636
  C         8.1697992776        5.9673797154       11.2774234165
  H         7.8509405681        3.8296274123       11.8959155543
  C         9.7213995118        5.5953182526        6.7885246629
  H         9.8538105554        1.8992327005        6.7779570326
  C        10.2014725167        3.6327731648        5.6795597604
  H        10.9457356891        3.9447509306       10.6372495510
  H        11.6441873025        3.4366982251        8.9697087463
  C        12.3338146324        2.4587789493       10.8257004807
  C         7.6999370008        6.6768580438       12.5570424809
  C        10.1862298640        4.9660588060        5.6403212200
  H         9.7850424288        6.6297399799        6.8109757012
  C        10.7037248997        3.2415893473        4.4374643579
  H        13.0701792127        3.1833411606       11.0366799080
  H        12.8154500504        1.5321258669       10.4449451457
  C        11.9399240790        1.9518428081       12.2149640933
  C         7.8036467596        7.9998089841       12.8260141572
  C         7.2172349424        5.8473918792       13.6538191109
  C        10.7309594561        5.6411107267        4.4441328945
  C        10.8999004483        4.3293172247        3.6049515627
  S        11.1319658544        1.8160182441        3.5906375065
  H        10.8202771406        2.0993499527       12.4395207115
  H        12.1465643904        0.8824516909       12.1655147312
  C        12.7188483437        2.5856198341       13.3661349829
  N         8.1621257907        8.9832718859       11.9148430089
  C         7.5385873315        8.5374928678       14.0627611353
  C         6.9399496645        6.3762058284       14.9485158835
  H         7.0016575677        4.8207213914       13.4755472290
  C        12.0145605993        6.4462069307        4.7739437038
  C         9.6968958627        6.6122674598        3.7572614511
  C        11.2023641929        3.9907451581        2.2668400115
  C        11.3766135122        2.6452701723        2.1248700085
  H        12.3621259995        3.5897289888       13.6450439917
  H        13.8012854526        2.7027897738       13.0461144794
  C        12.5333582487        1.8009424625       14.6515344388
  S         8.4478331508       10.4227270430       12.6510563504
  N         7.9043603717        9.8774260321       14.1552929681
  C         7.1716256370        7.7990607237       15.2144158597
  H         6.4782725886        5.7091869382       15.7047204550
  H        11.9634875139        7.0610471851        5.6652010988
  H        12.2418307383        7.1329948960        3.9094364241
  C        13.1891979292        5.4893640521        5.0417936539
  H         9.5699607223        7.4003433109        4.5403670934
  H        10.0722556158        7.1638974910        2.9227599206
  C         8.3492673708        5.9928262246        3.4645524342
  H        11.2328166909        4.7356625254        1.5869655611
  C        11.6103086544        1.8056466549        0.8781271243
  H        11.5303995889        1.4258134628       14.5986154329
  H        13.1156804192        0.9075333702       14.8169639289
  C        12.7128135783        2.5928135258       15.9335865256
  C         6.9737907591        8.5056039020       16.4546605187
  H        12.8678265169        4.8916985850        5.8818192356
  H        13.2709332059        4.7102312410        4.2930778741
  C        14.5650895476        6.1864216137        5.1684651572
  H         7.6850153929        6.6515788178        4.0694688678
  H         8.4153396222        5.0237536515        3.9391800094
  C         7.9518237238        5.9618196910        1.9770816522
  C        11.6781764612        0.3644522884        0.7943344256
  C        11.7562552457        2.5162440029       -0.4454121061
  H        12.0755249274        3.5008563462       15.8484035284
  H        13.7693092170        2.8480557630       16.0495617642
  C        12.2559765858        1.7652465465       17.1665103474
  H         7.0669167250        9.6070355123       16.3595103140
  C         6.5927844430        8.1022412274       17.7336593743
  H        14.4304023485        7.1499589112        5.6649432167
  H        14.9605816034        6.3849642601        4.1739559528
  C        15.6252352829        5.2538145085        5.8169964700
  H         8.2087096162        6.9176700676        1.4832397284
  H         8.5455664219        5.2189544830        1.3507771237
  C         6.4498758152        5.6887886999        1.8226353018
  N        11.5027299164       -0.6033176577        1.8819854438
  C        12.0004714169       -0.3192748974       -0.3979256091
  C        11.9407485642        1.7988264558       -1.6030348967
  H        11.8550114898        3.6042852426       -0.4808116364
  H        12.1994368579        2.4023842231       18.0636230721
  H        12.9447674150        0.9312586238       17.3939182269
  H        11.2727592249        1.3740319147       17.0074868909
  S         6.2329189671        6.4542203009       18.2622915097
  C         6.6140578858        9.0790812453       18.8659087413
  H        15.1764566787        4.9059752925        6.6954119098
  H        15.9520283336        4.4959701651        5.0742386224
  C        16.8527940518        6.0228335053        6.2242359098
  H         6.1431367638        4.9887250844        2.5905391209
  H         6.3179397791        5.1364064357        0.7939938411
  C         5.4914287299        6.8853057822        1.9792207679
  S        11.5810738789       -2.1181178828        1.2499870871
  N        12.0027599187       -1.7289506773       -0.3106162310
  C        12.1007136349        0.3471730097       -1.6230157198
  H        12.0443370949        2.4401178915       -2.4726850170
  C         6.0592562981        7.1432777243       19.8446723125
  N         6.2800265268        8.4480436444       19.9986643009
  O         6.9615043773       10.2670983433       18.7661862105
  H        17.3457271445        6.4959326804        5.3889601620
  H        16.5449974266        6.8667186298        6.7972966919
  C        17.8774908710        5.1388698580        6.8485225214
  H         4.4540068708        6.5540108064        2.0186583286
  H         5.5947240797        7.3263498591        2.9971694758
  C         5.6711824213        8.0614641577        0.9611112868
  C        12.3585318557       -0.3966819512       -2.7537732866
  S         5.9260821731        6.2138240824       21.3586609883
  C         6.2662476724        9.2002185569       21.2438671943
  H        17.3842062946        4.4875392130        7.5805178683
  H        18.2963574680        4.4443533174        6.1181609368
  C        19.1040634010        5.9004438073        7.4763028271
  H         5.8041379501        7.6502142762       -0.0434817143
  H         6.4444491585        8.7711200979        1.2580020049
  C         4.3103480919        8.9104342519        0.9547763218
  H        11.9027123170       -1.3782308143       -2.7428667836
  C        12.8819936249       -0.0798070089       -4.0029665737
  H         5.5016189021        8.9317554725       21.9098571347
  H         6.0313659921       10.2750886904       21.0162312239
  C         7.7143148153        9.1380155961       21.9273689466
  H        19.5372100937        5.4048690633        8.4765630177
  H        18.8562887511        6.9646927438        7.7037483433
  C        20.2994209028        5.9031143112        6.5707201491
  H         3.8763459032        8.6936379968       -0.0198330501
  H         3.5612494435        8.7343961462        1.8303081602
  C         4.4891909301       10.4002131377        1.1862748430
  S        13.4807052255        1.4278627877       -4.4928331681
  C        13.0323992196       -1.1474716348       -4.9901672345
  H         7.8744625528       10.0889587625       22.4136939616
  H         8.4030823963        8.9900348836       21.0574291439
  H         7.7997588139        8.2479949082       22.6558588369
  H        20.5423863821        4.9912476095        6.1380568510
  H        20.0542014877        6.5087602134        5.6509681499
  H        21.1001550487        6.3669657950        7.1493531140
  H         5.0439831006       10.8427157187        0.3979062728
  H         3.4982297421       10.9603720921        1.2088567573
  H         4.9823209883       10.4325082595        2.1679834905
  C        13.9480197913        0.6448110048       -5.9840186862
  N        13.7200711312       -0.6707129075       -6.0575095613
  O        12.5907960847       -2.2823977694       -4.7535493512
  S        15.0346906061        1.3172832932       -7.1971515134
  C        14.0041271795       -1.5353788508       -7.2183540357
  H        14.0534271203       -2.5006511211       -6.8829443953
  H        14.9367331756       -1.4352000598       -7.8090764603
  C        12.8544601415       -1.3492584732       -8.2290801424
  H        12.0468255734       -0.9071040701       -7.7596766239
  H        12.5931904425       -2.3653838377       -8.6073561504
  H        13.2319710989       -0.6760222491       -8.9622294004
  H        -2.8584954402       15.0426414538       16.0774390026
  C        -2.6338539995       13.9977499776       16.3135946644
  H        -3.3909062778       13.4788053527       16.8093012607
  C        -1.4360706106       14.0051176945       17.2402696753
  C        -2.3171986864       13.3583060680       14.9697644821
  C        -1.6934446343       14.2817348693       18.7081336126
  H        -0.9722192462       13.0574491837       17.1381292083
  H        -0.6841509589       14.6575730563       16.9390921452
  H        -1.4475616244       13.8392523973       14.4694173337
  H        -2.0096950091       12.3256856054       15.0669464801
  H        -3.1480857568       13.4095005101       14.2623736445
  C        -1.6852060886       13.0800862655       19.5359831817
  H        -2.6620343921       14.7341583149       18.8111420304
  H        -0.9736371341       14.9988498059       19.1407352448
  C        -2.1139804675       13.1140145315       21.0189264128
  H        -2.3506689256       12.4304592621       19.0236524435
  H        -0.6762271613       12.6845649691       19.5576051385
  C        -1.0903819325       12.5337952183       22.1045876882
  H        -3.0867520622       12.6128845473       21.0658155582
  H        -2.4138169828       14.1097486267       21.3030411448
  C         0.1077309234       13.4408143267       22.2011458198
  H        -1.6301678133       12.4922375813       22.9989860116
  H        -0.7777346300       11.5092029546       21.9476864473
  C         1.3079889694       12.8642479765       22.9395361197
  H         0.3904103421       13.7540462377       21.2276782071
  H        -0.2480939862       14.4352120228       22.5024893944
  C         1.7894066179       11.6238323683       22.1824404699
  C         0.9536941028       12.1467313701       24.1716448391
  C         2.4793893618       13.8733905852       23.0389448824
  C         1.6576931790       10.5202900872       22.9963542986
  C         2.1558319864       11.2657016806       20.9225373905
  C         1.1737035998       10.8675272668       24.2754418328
  C         0.4077339692       12.7499080152       25.3182200331
  H         2.7265465758       14.2601089032       22.0517236532
  H         2.0956532867       14.7667715788       23.6127876060
  C         3.7749266036       13.3566979665       23.7653201550
  S         2.1077616631        9.0616462647       22.2525443017
  C         2.3186335933        9.9231884930       20.8100438757
  H         2.1704616890       12.0229188597       20.1133776465
  C         0.7848100779       10.1891119960       25.4005705287
  H         0.3042487787       13.8134915435       25.1981501720
  C         0.1751557146       12.0989134299       26.4674304719
  H         4.1997424995       12.6560230728       23.0142012094
  H         3.6219542524       12.8297776919       24.7445679409
  C         4.9072857837       14.3376013457       23.9463454034
  C         2.8102470086        9.2528109708       19.5859087287
  C         0.3739530083       10.7404037363       26.6148783968
  H         0.7999943536        9.0613420007       25.4927340637
  C        -0.2014387802       12.4406306883       27.7831917680
  H         5.6215469941       13.9682133064       24.7049484797
  H         4.5915050382       15.2426210668       24.4644932770
  C         5.6845843097       14.7713004645       22.6543064427
  C         2.8872659218        7.8500714978       19.3851223342
  C         3.3864425282       10.0639774354       18.4798237663
  C        -0.0209682888       10.0400043735       27.8754087445
  C        -0.2052757509       11.3655358764       28.6491264785
  S        -0.5997111392       13.9846703423       28.5621389958
  H         6.2919529587       15.6447421959       22.9677696605
  H         4.9576697313       15.1065748724       21.8753042815
  C         6.6005959444       13.6680874776       22.0239782285
  N         2.6827223574        6.8733758785       20.3450541994
  C         3.1040819971        7.3627236499       18.1196585493
  C         3.5820775883        9.5454401657       17.1799149387
  H         3.5414244330       11.1364354361       18.6446603911
  C         1.0812474869        9.1416453554       28.5378763491
  C        -1.3709899857        9.3088419463       27.7423054491
  C        -0.5885787432       11.7687003972       29.9519427328
  C        -0.8355304599       13.1155425610       30.0504122895
  H         7.6754459127       13.8916839796       22.3292920198
  H         6.3494514945       12.6914261539       22.4892176436
  C         6.5181318377       13.5574219209       20.4922961924
  S         2.7134264560        5.4223590586       19.5687309748
  N         3.0562631404        5.9425738906       18.1077182941
  C         3.3269785232        8.0880019357       16.9315181309
  H         4.1663134870       10.1674833838       16.4798863666
  H         1.4892514075        8.4733899213       27.7692876001
  H         0.6257633559        8.4720161667       29.3277725817
  C         2.2337553665        9.8884415498       29.1756550522
  H        -1.1915548957        8.3988024606       27.0535777076
  H        -1.6200366517        8.8587440928       28.7164731372
  C        -2.5422810821       10.1432395109       27.1991931366
  H        -0.7137791697       11.0213468341       30.6840646776
  C        -1.1424982706       13.8545627450       31.3185592466
  H         6.2455295923       14.5538367154       20.2198550940
  H         5.7062788946       12.8941084359       20.0833300998
  C         7.8895722458       13.1425600460       19.8440928948
  C         3.5936202983        7.4233916766       15.7134549574
  H         2.5577954621       10.6489477901       28.4883045034
  H         1.7718410894       10.3387687029       30.0344373651
  C         3.4530094333        9.0231490220       29.5278840193
  H        -2.3618688251       10.5310450836       26.2010994318
  H        -2.7078669581       11.1182868834       27.7882091351
  C        -3.8065210309        9.3340334917       27.0826949719
  C        -1.2870197111       15.2300912962       31.4019666229
  C        -1.4699093888       13.0993385449       32.5499516045
  H         8.4697539777       14.0339986041       20.0497947544
  H         8.4671383898       12.2830766392       20.4100345219
  C         7.7301491801       13.0433520094       18.3263212134
  H         3.4411695004        6.3102066292       15.7816901787
  C         3.8742153736        7.7822973814       14.4264317822
  H         3.8278765519        8.4055444737       28.7281406929
  H         3.0876806149        8.3572818142       30.2383771125
  C         4.5595306885        9.9235658564       30.0952019588
  H        -3.6688119965        8.5509425305       26.3285840593
  H        -3.9739120504        8.7637933260       28.0027835754
  C        -5.0517564674       10.1023082820       26.6644521931
  N        -0.9469668763       16.1718803096       30.4224987117
  C        -1.7949383447       15.8909133848       32.4820912473
  C        -1.9222768424       13.7823938391       33.6872865416
  H        -1.3995563143       12.0076383698       32.5102331419
  H         7.7093203470       13.9851838218       17.8299714459
  H         8.4511750784       12.4132890354       17.7295357310
  H         6.7081652858       12.6632866098       18.1675401456
  S         4.2763553912        9.3521483028       13.9641487844
  C         4.0064473136        6.7307791042       13.3690835268
  H         4.7205609872       10.7531369016       29.3665191846
  H         4.2145259612       10.4238025019       31.0614567755
  C         5.8376910082        9.1747819165       30.3448536410
  H        -4.7299412678       11.1206016113       26.4735447794
  H        -5.7474767315       10.1930263990       27.5490949072
  C        -5.6576265115        9.5381608133       25.3981096954
  S        -1.2952787298       17.6849680298       30.9110108689
  N        -1.9456355930       17.2298594658       32.3263121217
  C        -2.0420584101       15.2749967767       33.6770419071
  H        -2.2099340095       13.2477006580       34.5438221728
  C         4.2276196653        8.7420275786       12.2719163245
  N         4.2844985107        7.3792763682       12.2199491697
  O         3.8359822790        5.5719246035       13.5417897090
  H         6.4818114773        9.7279436340       31.0210443751
  H         6.2945817394        8.9755215406       29.4093760121
  C         5.7066085856        7.8199228018       31.0644886170
  H        -4.8190391131        9.2877046409       24.6640124195
  H        -6.0514970648        8.5505576980       25.5775824145
  C        -6.6711513072       10.4155695594       24.7162074384
  C        -2.4376292252       16.0529853170       34.8418510624
  S         4.7875902013        9.5994729357       10.8892045211
  C         4.2870420470        6.5554732603       11.0063934508
  H         6.3021470964        7.8744694344       31.9218321536
  H         4.6683220173        7.6119453283       31.3501478068
  C         6.3390598215        6.6851889285       30.3491555041
  H        -6.4539216758       10.6610717082       23.6503332826
  H        -6.5084962691       11.3906150685       25.1808107452
  C        -8.1047693883        9.9498907722       24.6408370729
  H        -2.2849571028       17.1197582365       34.8014609129
  C        -2.9926706916       15.7003821361       36.0884562851
  H         4.9889819885        6.9953243986       10.2442662653
  H         4.7624559519        5.5566335387       11.1978656498
  C         2.8946615985        6.3300952347       10.4204508481
  H         7.2947604031        7.0006193635       29.8260874498
  H         5.7873249844        6.4533394174       29.3949678001
  C         6.4399551550        5.5023592669       31.2622661853
  H        -8.6940596095       10.7951960183       24.0901831867
  H        -8.2233293373        8.9970006844       24.2498904068
  C        -8.8174550511        9.9391990085       26.0026729773
  S        -3.2579805394       14.1414565031       36.7643551866
  C        -3.2495802038       16.8471726811       37.0304255622
  H         2.4776638061        7.2079863998       10.0123095430
  H         2.9612465362        5.5172895387        9.6807514666
  H         2.3134500967        6.0443516858       11.2756285533
  H         7.3521778035        4.8719893029       31.0151622877
  H         5.5874819790        4.8153055990       31.1468146759
  H         6.5418466277        5.7399799059       32.3132095898
  H        -8.5771516909       10.7800534720       26.6633188972
  H        -8.6369949390        8.9901504900       26.5373277595
  H        -9.9163417479        9.9421529530       25.8564911357
  C        -3.9204401726       15.0449210704       38.1852660086
  N        -3.7570422368       16.3821665806       38.1775653256
  O        -3.1712649613       18.0233554425       36.7627493623
  S        -4.6684396645       14.2114424896       39.5859762050
  C        -4.1780319375       17.2650054775       39.3187698113
  H        -4.2434703359       18.3160178735       39.0715096731
  H        -5.2341170174       16.9260860558       39.5050292470
  C        -3.2913860755       17.0639962428       40.5443325736
  H        -2.3962539542       16.4603937533       40.3923690301
  H        -3.0181633870       18.0550814635       40.9772612995
  H        -3.8135422339       16.4682018733       41.2848078366
