352
i=
  H         2.0860743404        3.2569684672       12.2265814219
  C         2.8126168666        2.6736663740       12.7878622708
  H         2.5955012737        1.5804368705       12.7234853592
  C         4.1621041369        2.8153170714       12.0867212510
  C         3.0243201954        3.1919962377       14.2177753771
  C         4.0467691939        2.9863259757       10.5216985492
  H         4.5884572525        1.7907226436       12.2417809386
  H         4.7774547874        3.5572469757       12.4160407250
  H         2.1521754033        3.6144284042       14.7394953417
  H         3.8643541359        3.8665299073       14.2214573834
  H         3.4952473117        2.4096408958       14.7924197653
  C         4.6666916341        1.7258514749        9.8147858329
  H         2.9641881897        2.9962666875       10.2845288036
  H         4.4774264528        3.9262448079       10.1701497062
  C         5.2205181421        1.9857447199        8.3988684611
  H         3.9261909512        1.0222625116        9.6488356028
  H         5.4546138439        1.3248511330       10.4861814230
  C         6.4205326202        2.9159665773        8.4113887842
  H         4.5183747625        2.5481604033        7.7703271547
  H         5.4190034521        1.1058179598        7.8545293097
  C         7.7234989974        2.2575232648        8.8784497946
  H         6.4206565440        3.2666332493        7.3755960455
  H         6.2587802454        3.8922763643        9.0113001995
  C         8.9754119061        3.1636491935        9.0802912262
  H         8.0381511691        1.4257658455        8.2889222047
  H         7.5992143950        1.8825019919        9.8711281977
  C         8.6696348923        4.4955864674        9.7560948276
  C         9.3926835758        3.8288263565        7.8238829934
  C        10.1292426955        2.4078913249        9.7960665875
  C         8.9650896654        5.5929114229        8.9728124280
  C         8.2911972810        4.9575292106       11.0390723871
  C         9.4205535072        5.1672193602        7.7372643212
  C         9.8696266129        3.2263574773        6.6830951525
  H         9.7203141551        2.0205797999       10.7820841389
  H        10.4798784620        1.5570526973        9.2566889901
  C        11.3183882870        3.2304074147       10.2401056650
  S         8.5017091818        7.1334287417        9.6343530100
  C         8.1393269261        6.3435909328       11.0725025703
  H         8.1161347781        4.2521787239       11.8759171741
  C         9.7932877578        5.7752469095        6.5158047349
  H         9.9170508082        2.1743407036        6.7959399755
  C        10.3170656487        3.7272711752        5.5314680613
  H        11.0525555648        4.1981115011       10.7317686389
  H        11.9052664644        3.5370386412        9.3794100690
  C        12.1727375551        2.4422919540       11.2390561093
  C         7.7517357547        6.9884743790       12.3390245391
  C        10.2570618148        5.0800903901        5.3808156237
  H         9.9138263968        6.8888820820        6.4791347254
  C        10.7090493884        3.2760278808        4.3237752785
  H        13.1194376522        3.1029403120       11.3600614437
  H        12.5817532972        1.5349998682       10.8291142065
  C        11.5035502098        2.2245458859       12.5995784489
  C         7.8029925285        8.3824687035       12.6039411909
  C         7.3221180817        6.1200506433       13.4896159193
  C        10.7728879243        5.7026682597        4.1309453306
  C        11.0318217758        4.3250620981        3.4871215626
  S        10.9771846864        1.7024492320        3.6778384285
  H        10.8763088242        3.0640448248       12.7961373079
  H        10.9979066654        1.2709157016       12.5034024017
  C        12.2850602975        2.1205047761       13.8629070611
  N         8.1666475853        9.3360329861       11.6642752309
  C         7.5822257784        8.9127396002       13.8719218367
  C         7.1197026932        6.7013320506       14.7967228765
  H         7.1220976728        5.0550291827       13.4181795600
  C        12.1107935034        6.5462931557        4.3849357805
  C         9.7384425380        6.5317335704        3.3698064697
  C        11.5798273792        3.8936790672        2.2835771890
  C        11.5033554032        2.5325739967        2.2168309919
  H        12.8611708663        3.0508136536       14.0835312835
  H        13.0124071610        1.3368166126       13.8011963937
  C        11.4183652274        1.8594587263       15.1088819949
  S         8.1637324420       10.8171320272       12.4463305178
  N         7.6802038568       10.2925319304       13.9030949463
  C         7.2439683675        8.1780669659       15.0074038166
  H         6.6608007138        6.1152436376       15.6237724792
  H        11.8434368946        7.4148400394        5.0100665008
  H        12.5338060171        6.8556562786        3.4267455597
  C        13.1010499669        5.6635977070        5.2214902321
  H         9.4064270477        7.3267867156        4.0464163671
  H        10.1995039135        7.0886249269        2.5344872126
  C         8.5317147335        5.7298114265        2.7123660904
  H        11.9190848423        4.7261569390        1.6056659538
  C        11.8845246088        1.7687893202        0.9902624754
  H        10.6003758949        2.5282497558       15.1559583889
  H        10.9912348439        0.8320239755       15.0863144475
  C        12.1591268438        1.8674797122       16.5111439839
  C         6.9015654218        8.8686404257       16.2256582862
  H        12.5869668595        5.4539670171        6.1882780684
  H        13.2655306928        4.7264363559        4.7076454607
  C        14.4831943177        6.2907073244        5.4231053607
  H         8.1998517168        5.1128982170        3.5269367170
  H         8.8361568347        5.1136686195        1.8801915939
  C         7.4797081466        6.6943116327        2.0762990923
  C        11.7908344394        0.3417254269        0.8176337379
  C        12.1330313836        2.6241056191       -0.2045903751
  H        12.6911946761        0.9529210830       16.7560938848
  H        11.3145906915        1.9869090718       17.1552031879
  C        13.0533138979        3.0933684672       16.7934770706
  H         6.9692817630        9.9851579884       16.2683761960
  C         6.4734170831        8.3854549540       17.4701918671
  H        14.5215632487        7.1624754526        6.0186211467
  H        14.7348170063        6.6789014811        4.5037130221
  C        15.5387552049        5.2793882846        5.8449974268
  H         7.0545766215        7.3996641106        2.7863359996
  H         7.9059486758        7.3823585567        1.3623790973
  C         6.3413980898        5.9191209626        1.4266627878
  N        11.4392085907       -0.5352740991        1.8439652939
  C        12.2317722857       -0.2668533735       -0.3331601667
  C        12.4598903906        1.9532100811       -1.4057964532
  H        12.1216757396        3.6629094474       -0.2371250284
  H        12.5927453846        4.0785900617       16.6106306272
  H        13.9996242114        2.9461807836       16.3042081388
  H        13.1691634264        3.1185069779       17.8637950659
  S         6.1634132466        6.6991861701       17.9684782293
  C         6.2759793662        9.4208777566       18.5699413412
  H        15.2098633959        4.8002648345        6.7556207545
  H        15.5527512819        4.5754379180        5.0513665625
  C        16.9647854005        5.8363638070        6.0019282759
  H         6.3411681551        4.8769535644        1.7885174179
  H         6.3986148528        5.8802862620        0.3815030908
  C         4.9974090795        6.6359210804        1.6647085873
  S        11.5688709946       -2.0348464357        1.2136674463
  N        12.2250640210       -1.6409215193       -0.1653495257
  C        12.5402845711        0.4445487081       -1.5284214536
  H        12.5312801732        2.5324953079       -2.3318041019
  C         5.9126746819        7.4491556719       19.5639601860
  N         6.0018265203        8.7694149275       19.7084638851
  O         6.3166508638       10.6170486336       18.5101019589
  H        17.2633853048        5.9436462006        5.0120113698
  H        16.9592109568        6.8195890722        6.4436119632
  C        17.7278403281        4.9726318771        6.9456037776
  H         4.4675632763        5.8776544198        1.0990552621
  H         4.6567225206        6.5440622765        2.6650860824
  C         4.8948437010        8.1168089512        1.0483538682
  C        12.8772327345       -0.3303505014       -2.6831086942
  S         5.4874758442        6.5209414204       20.9891845440
  C         6.1100128357        9.4171433025       21.0262580353
  H        17.1871199256        4.8803414143        7.9300759851
  H        17.9225475664        3.9547724677        6.5067475181
  C        19.0253504780        5.5965697140        7.3020786300
  H         4.5821530735        8.1656620551       -0.0146459709
  H         5.9106610847        8.4754709711        1.1358910560
  C         3.8844311846        9.0047696697        1.7953808127
  H        12.6503837931       -1.3544902444       -2.5272858746
  C        13.3054174897       -0.0206942970       -3.9532553877
  H         5.3257668614        9.0426586816       21.7457053016
  H         5.8168429803       10.4266329340       20.9228501920
  C         7.5448721051        9.3096623300       21.5970699456
  H        19.4119984966        5.0429865956        8.1967360886
  H        18.8655866565        6.6753355460        7.6466320261
  C        20.0423584638        5.6238649474        6.1498922535
  H         2.9506639552        8.9100095524        1.2576324158
  H         3.8250505206        8.6339781447        2.8378949028
  C         4.2968292226       10.4944520817        1.7106952756
  S        13.8916802822        1.4858208111       -4.4608853627
  C        13.3803768422       -1.1071976543       -4.9673962250
  H         7.6692083680        8.3850140306       22.1780176866
  H         7.5909035693       10.1287073839       22.3120957194
  H         8.4125027113        9.4561973199       20.9536063044
  H        19.7835703882        6.4820419131        5.4248186528
  H        21.0434316424        5.6509923860        6.4094691181
  H        19.9658103814        4.6657886522        5.6416921066
  H         5.1893335919       10.6389790587        2.2376823565
  H         4.5253674318       10.6167002539        0.6623099581
  H         3.6187878562       11.2791942671        2.0131117040
  C        14.2495715288        0.6774563307       -5.9990222178
  N        13.8983277161       -0.6200669996       -6.0649541637
  O        13.2361513178       -2.2742084555       -4.7120486379
  S        14.7280004321        1.5705270155       -7.4269414140
  C        14.1552672104       -1.4188558805       -7.2786327771
  H        14.6751914775       -2.3980109525       -7.0677580820
  H        14.8924263928       -1.0017779650       -7.9136373376
  C        12.7663098171       -1.7003411920       -7.9497565560
  H        12.1098784523       -0.8286126078       -7.8452153566
  H        12.3241882261       -2.4335114044       -7.3262732208
  H        12.8342714938       -1.8716220560       -8.9866288936
  H        -3.6762196535       14.9697089233       16.5064794456
  C        -3.2439870866       13.9136475510       16.6147924280
  H        -3.9181350720       13.4281448507       17.3507242340
  C        -1.8752808678       14.0972021509       17.3089434323
  C        -3.2319729120       13.3189063440       15.2657536624
  C        -1.8909770818       13.2892891245       18.6556731772
  H        -1.0331423738       13.7663035308       16.6784966717
  H        -1.6326699277       15.1360172215       17.4236641950
  H        -2.6653716297       13.9364902368       14.6169155369
  H        -2.8041589783       12.3461307999       15.3362467703
  H        -4.2295277391       13.2593411188       14.8477984534
  C        -2.5129694684       14.0428640594       19.7972967792
  H        -0.8112704122       13.1149823721       18.8716272574
  H        -2.3019328290       12.3077555391       18.5069099324
  C        -2.6698805452       13.1773026637       21.0786729806
  H        -1.8851710899       14.8472677079       20.0773370233
  H        -3.4339780483       14.5091178995       19.5064192122
  C        -1.3254813462       12.6372561748       21.6565031008
  H        -3.3177315109       12.3246051649       20.8071841964
  H        -3.2607879739       13.7547815269       21.7610704051
  C        -0.3787514737       13.7288898249       22.1612003296
  H        -1.5739236173       12.0247993435       22.4943650505
  H        -0.7966764046       11.9440320692       20.8884809801
  C         0.7747931676       13.1787231159       22.9706569149
  H        -0.0070392948       14.2769351506       21.2449332014
  H        -0.9315097825       14.4438529559       22.8093088049
  C         1.2225484041       11.8932130759       22.2907585783
  C         0.3230846330       12.5106250995       24.2031236410
  C         1.9455600490       14.1326020789       23.1862374551
  C         0.9228426327       10.7928027995       23.0237777729
  C         1.9441828433       11.5640095950       21.1278298120
  C         0.4504061516       11.1362173001       24.2544180530
  C        -0.0446460607       13.0610949029       25.4152370059
  H         2.2202055408       14.7333153115       22.3561402929
  H         1.5662906495       14.8898082107       23.7965528990
  C         3.2153678491       13.6434448149       23.8990458629
  S         1.3912731838        9.3380149448       22.2786644137
  C         1.9892011512       10.2216951812       20.9154769502
  H         2.2794385070       12.4051439983       20.5744195472
  C         0.0676612213       10.5008589750       25.4067441252
  H        -0.1967662487       14.1438544000       25.4386405262
  C        -0.3972426979       12.3687181686       26.5746822000
  H         3.3833118682       12.6217093288       23.5483443894
  H         3.0829323284       13.4522702030       24.9631360116
  C         4.4572705229       14.4977232047       23.6304723620
  C         2.3255441115        9.6285549994       19.5775506335
  C        -0.3146071757       11.0373475832       26.6180466925
  H         0.1412615108        9.4461905405       25.3455981518
  C        -0.7678135569       12.6545592088       27.8909308332
  H         5.2153757341       13.9885849038       24.2678689966
  H         4.2006431962       15.4734585104       24.0755965929
  C         4.8232407215       14.5786951865       22.1865056114
  C         2.3838621293        8.2383805479       19.2832681199
  C         2.7599239995       10.5612070719       18.4841138875
  C        -0.5620642337       10.2938794439       27.8810020839
  C        -0.8154770963       11.5658055623       28.7015976849
  S        -1.1485058865       14.0994417212       28.6368130666
  H         5.7871164113       15.1042438543       22.0827979820
  H         4.0980112605       15.1199337974       21.5986411612
  C         5.1090298660       13.2478277467       21.4564049827
  N         2.0273660475        7.2245969447       20.1826383855
  C         2.8203024136        7.7564154125       18.0989123060
  C         3.1934113119       10.0732872980       17.2427590812
  H         2.7066896846       11.6248214033       18.5888964637
  C         0.7492000797        9.5884597153       28.4191869746
  C        -1.8342934872        9.4454802575       27.7274696452
  C        -1.1805638144       11.9213731599       30.0129237364
  C        -1.4479559265       13.2673463832       30.0799052903
  H         6.0037056194       12.7729932104       21.8712094747
  H         4.3497400683       12.5346429663       21.3923399252
  C         5.2980335766       13.5724722777       19.9822868343
  S         2.3148837440        5.7772159345       19.4656990090
  N         2.8636970451        6.3638377594       18.0309172835
  C         3.2090882582        8.5998529276       17.0088225167
  H         3.6737466859       10.6783221960       16.5028578830
  H         1.0359325289        8.6839413760       27.8084399266
  H         0.4642017854        9.0491020587       29.2930039321
  C         1.9304282772       10.4396214272       28.6594849911
  H        -1.7129245095        8.5702594667       27.0622746315
  H        -2.1566133234        9.0548088801       28.6690675550
  C        -3.0363948656       10.2422881245       27.2524146356
  H        -1.2769193047       11.1728541865       30.8107745909
  C        -1.8142111120       14.0758346027       31.3133295426
  H         4.8307410364       14.5136255230       19.7172793586
  H         4.8913796924       12.7984910469       19.3451566408
  C         6.7821926362       13.6539966671       19.5602104640
  C         3.6424213918        7.8917422615       15.8863812784
  H         2.3306177977       10.8122324104       27.7315079596
  H         1.6147282265       11.2626522998       29.2696040865
  C         2.9984827020        9.5304902495       29.3899297175
  H        -2.8103753271       10.6791140797       26.2804282046
  H        -3.3596250276       11.0228500484       27.9435344862
  C        -4.1568107804        9.2394422765       27.0891774884
  C        -1.9098671658       15.5313732381       31.4037104072
  C        -1.9575694635       13.3927351766       32.6422018036
  H         7.3004145075       14.3344499887       20.2754049793
  H         7.2570240080       12.7095019584       19.6346529997
  C         6.7640467625       14.1678768139       18.1222827452
  H         3.5240844286        6.7786361353       15.9524808102
  C         3.9246499575        8.3748224183       14.6290143204
  H         3.6301369905        9.0407950199       28.7164957865
  H         2.6114853702        8.6921052875       29.9087355464
  C         3.7496844567       10.4445198595       30.3448880420
  H        -4.0493226980        8.5929315921       26.1756909431
  H        -4.2265619747        8.6603609112       27.9982802501
  C        -5.5248075005       10.0103625842       26.9150002443
  N        -1.6722831563       16.4020434688       30.3821177538
  C        -2.0958351607       16.2309722676       32.5428023350
  C        -2.1962174217       14.0895961581       33.7799173442
  H        -1.8525583453       12.3141759379       32.6319577040
  H         6.9511868588       15.2107639441       18.1661446352
  H         7.5522702505       13.7575111600       17.4506893749
  H         5.7304091025       14.1577443280       17.7191592923
  S         4.0320723202        9.9864223062       14.0311817409
  C         4.0055593593        7.3701383997       13.5539333409
  H         3.8251226669       11.4675138984       29.8380068472
  H         3.1877588870       10.5605030535       31.2554882687
  C         5.1656918673        9.9319570123       30.5100613805
  H        -5.6236571245       10.8162828178       27.6381706301
  H        -6.2636399568        9.2901653994       27.3148233365
  C        -5.8389767088       10.3851774271       25.4185559364
  S        -1.7555841781       17.9626143480       30.9045090129
  N        -2.0380721263       17.6043250474       32.4345278827
  C        -2.2449641242       15.5838792809       33.8087154464
  H        -2.3919925646       13.6201880508       34.6924416168
  C         4.2834155656        9.3160430154       12.3651917962
  N         4.2759533661        7.9403092015       12.3245839408
  O         3.9106497449        6.2089394577       13.7016389903
  H         5.7406089476       10.5806285249       31.1252199776
  H         5.6918281757        9.7597905248       29.5508875294
  C         5.2703263418        8.6185284579       31.1634914144
  H        -4.9081199625       10.9665444197       25.0669952396
  H        -5.7624944085        9.4099998818       24.9274581464
  C        -7.1160998341       11.1722596673       25.0633569100
  C        -2.4640651519       16.3278838938       34.9729046788
  S         4.6088762570       10.1438123556       10.8114145628
  C         4.3076563812        7.1923820711       11.0674690381
  H         5.5678840034        8.8009590020       32.2455830916
  H         4.3566589452        8.1027880200       31.2074391339
  C         6.2095560955        7.5631522572       30.4556193777
  H        -7.0562329695       11.3411609636       23.9783078862
  H        -7.1773442092       12.1624740657       25.5428812477
  C        -8.4279667875       10.4380580225       25.2158048592
  H        -2.4683766545       17.4026093574       34.8422214998
  C        -2.8760429736       16.1057887729       36.2331376375
  H         4.9479164201        7.5745875988       10.1821481160
  H         4.7155835335        6.1549642734       11.3145054327
  C         2.8942600774        6.7890071429       10.6430354598
  H         7.0760129017        8.1518190620       30.1677941471
  H         5.6549480784        7.3969074495       29.5366513227
  C         6.5694757811        6.2872416197       31.2005476602
  H        -9.0899943744       10.9679478015       24.4899869659
  H        -8.4004102392        9.4022319015       24.9074528934
  C        -9.1671077455       10.6067591202       26.4937353783
  S        -3.2627092567       14.5378843588       36.9057659342
  C        -3.0843012464       17.2636615480       37.1623065390
  H         2.5151036798        7.3245019205        9.7421271490
  H         2.9070388311        5.7126535114       10.4162002130
  H         2.2015227775        7.0776258634       11.4295756366
  H         7.5681157055        6.1947215549       31.5018833967
  H         6.4083419657        5.4585283666       30.5738544276
  H         5.9649215410        6.2335721101       32.0640537570
  H        -9.1456224823       11.6635252819       26.6290232535
  H        -8.7814255971       10.0534531159       27.2958980898
  H       -10.2724216719       10.4630634984       26.3650031802
  C        -3.9218846537       15.4533031100       38.3155109615
  N        -3.7029564167       16.7946573006       38.2694436482
  O        -2.7738643958       18.4364060301       36.9277595859
  S        -4.1008630512       14.7874496931       39.9780215233
  C        -4.1683528814       17.8192841819       39.2851286107
  H        -4.3805741456       18.7757825635       38.8209670271
  H        -5.1394510371       17.3490131719       39.5855582996
  C        -3.0684333341       18.0577778930       40.2767740641
  H        -3.2256861233       17.5396509246       41.2677870745
  H        -2.1063640082       17.8332525234       39.9251111309
  H        -3.0871201751       19.1534452885       40.4216411989
