352
i=
  H         2.9164656066        1.0419744410       13.4095835098
  C         3.6266194051        1.4354872229       12.7017046958
  H         4.0202817104        0.4580492228       12.3646741531
  C         3.0321694874        2.0722527069       11.4894294711
  C         4.6717556268        2.2620077222       13.3813462370
  C         4.0264044994        2.2746168853       10.3145238407
  H         2.6479798053        2.9984363588       11.8353516754
  H         2.2339661959        1.4735608126       11.0895124182
  H         5.6167624819        2.3540913439       12.7241774253
  H         4.9998881331        1.8542914918       14.2989854267
  H         4.2473044089        3.3130087036       13.5094287280
  C         4.8125863609        1.0513578496        9.8463604277
  H         3.4418360647        2.7619814606        9.4998875214
  H         4.8475093428        2.9349200684       10.6123066429
  C         5.4071958449        1.2630138174        8.4769406411
  H         4.2005872210        0.2694868730        9.7916807008
  H         5.5431189066        0.8109150678       10.6538433662
  C         6.6830517723        2.2040082991        8.6709118575
  H         4.7906834352        1.8311512036        7.7120798110
  H         5.6886726138        0.3301893967        8.0293019368
  C         7.9209684821        1.4869184625        9.3995870832
  H         7.0608781782        2.6502440811        7.7704245001
  H         6.4621152123        3.1334936206        9.1417878910
  C         9.1600769105        2.4636733991        9.6376502214
  H         8.2190558329        0.6292627213        8.7804946074
  H         7.6103320930        1.0688710785       10.3715124575
  C         8.8020927350        3.8350605867       10.2742375593
  C         9.5399464829        3.0810307897        8.3388163273
  C        10.2869866103        1.7473126036       10.3576479134
  C         8.9187480031        4.8888439061        9.3858506507
  C         8.4254191548        4.2484377106       11.5663239466
  C         9.4130836124        4.4532684625        8.1639065447
  C        10.0304099604        2.4105262050        7.2357556289
  H        10.0579633849        1.5521318996       11.4270613367
  H        10.5476842664        0.7370742804        9.9211451785
  C        11.5743483037        2.5642610718       10.3808132742
  S         8.5806315378        6.4344960649       10.1123573608
  C         8.2942553659        5.6404236794       11.6339847633
  H         8.3266969434        3.5140081619       12.4138780677
  C         9.7541441111        5.0015069503        7.0028146289
  H        10.1871172932        1.4001090661        7.4039358203
  C        10.4132020729        2.9641058850        6.0451513938
  H        11.4005116227        3.5933517805       10.7102262869
  H        11.8865327960        2.6676750887        9.3865693524
  C        12.6070715467        2.1674717427       11.3312705029
  C         7.8109249483        6.3752054229       12.8394026225
  C        10.2944152824        4.3140923980        5.8993803790
  H         9.7280583122        6.1322265875        6.8884827109
  C        10.8508095956        2.5656192708        4.7914700440
  H        13.3366604157        2.7763947512       10.8166668711
  H        12.9595592792        1.1199295006       11.2185878871
  C        12.2279075635        2.5712332305       12.7675024924
  C         7.9279303012        7.7586774884       13.0333242893
  C         7.2224531156        5.6467627907       13.9958108601
  C        10.8225020548        4.9940104872        4.6954462058
  C        11.1177210992        3.6413001457        4.0272184838
  S        11.1136791244        1.0507247398        4.1086048156
  H        12.6880145677        3.4793836217       13.0445208324
  H        11.1337970419        2.7966620819       12.8735717265
  C        12.5705468487        1.5413683176       13.7733355126
  N         8.2862859496        8.6614672989       12.0249084980
  C         7.5845273946        8.4326190392       14.2279130683
  C         7.0063240394        6.2664823863       15.2083257041
  H         6.8675112124        4.6048644795       13.8118659350
  C        12.1603974227        5.7894373592        5.0512014615
  C         9.9016376344        5.8795039319        3.9532807971
  C        11.5233672736        3.2556710944        2.7064432936
  C        11.4934557890        1.8943960206        2.6262642386
  H        13.6541903752        1.2988700961       13.8200587207
  H        12.0712331129        0.6408538407       13.4340279279
  C        11.9968713870        1.7473192654       15.1927675524
  S         8.2413048568       10.2354575294       12.6424015883
  N         7.7984265928        9.7997121651       14.1596631578
  C         7.2172318838        7.7092924534       15.4468191598
  H         6.8030493362        5.6128222856       15.9897845534
  H        11.8802612073        6.6007159659        5.7569843406
  H        12.4783555619        6.2818870752        4.1455983779
  C        13.3155289690        4.8972470933        5.6247416281
  H         9.4575847688        6.5423189646        4.6990037249
  H        10.3898446247        6.5245400236        3.1685292493
  C         8.7441028559        5.1024667417        3.2092183525
  H        11.7106334190        4.0320456149        1.9748410737
  C        11.8198578619        1.1248155161        1.4022421756
  H        11.3118317958        2.5988080542       15.2614093364
  H        11.4712380081        0.7676026850       15.4177366453
  C        13.1221728791        1.9068805171       16.1824979017
  C         6.9144654481        8.4414470898       16.6485279587
  H        13.1258535102        4.5080390545        6.6019393672
  H        13.4138800821        3.9781899539        5.1464249259
  C        14.7185600306        5.6344702339        5.6534782485
  H         8.1887550279        4.5014140494        3.9482413674
  H         9.0383017506        4.3803135160        2.5190053126
  C         7.8057749445        6.1062576922        2.5045240813
  C        11.9466073189       -0.2710432344        1.1920279060
  C        11.8969556804        1.8918056407        0.1262837697
  H        13.8618512575        2.4961388215       15.7101548937
  H        13.6275374517        0.9247468634       16.4374179841
  C        12.8517958571        2.6871344875       17.5205820454
  H         7.1585718159        9.5592062152       16.5537448245
  C         6.5084939867        7.9934405058       17.8773843598
  H        14.6292202503        6.5248032092        6.2652953212
  H        14.9267404094        5.8773296247        4.6171553346
  C        15.7506785646        4.6925685480        6.2710747537
  H         7.5682115708        6.9845669623        3.0589451181
  H         8.3887943728        6.5283427401        1.7113865765
  C         6.5464851062        5.2961909550        2.1513694856
  N        11.7202217450       -1.1916067009        2.2387103293
  C        12.2381749398       -0.8393657908       -0.0254856433
  C        12.1419863247        1.3507816270       -1.1039364568
  H        11.6645186583        3.0086971875        0.2279637924
  H        12.3194900005        3.5958481244       17.4531513761
  H        13.8373310271        2.9277346729       18.0474068986
  H        12.1990363016        2.0506262644       18.0707109280
  S         6.1624764443        6.4539865337       18.4855505459
  C         6.3092181637        9.0804824206       18.8642898790
  H        15.4839010322        4.4069610485        7.3290941915
  H        15.7519215378        3.7544633707        5.7701578205
  C        17.0874253432        5.4564283448        6.1889087340
  H         6.0620389638        5.0274687721        3.0914676066
  H         6.7347984559        4.2926084707        1.7538834721
  C         5.6196389257        6.1364993125        1.1950228946
  S        11.8242230057       -2.6475420090        1.6017479168
  N        12.3296594542       -2.2741195314        0.0937648475
  C        12.3353069447       -0.1059722012       -1.2210205076
  H        12.2751565883        2.0318491501       -1.9107279265
  C         5.9566456323        7.2243191686       20.0573820660
  N         6.0608995045        8.5717766030       20.0726930066
  O         6.3993205177       10.2496309934       18.5815202247
  H        17.3844449285        5.4561843429        5.1669227209
  H        16.8624255664        6.4698916094        6.4544497294
  C        18.0713187753        4.9788344932        7.2701202815
  H         6.1352169985        6.8478873223        0.5010290103
  H         4.9861562888        5.4316242722        0.6301058684
  C         4.8045910654        7.0728760544        2.0084113517
  C        12.6896277765       -0.8309840856       -2.3826520473
  S         5.4968829649        6.2643432686       21.5285712298
  C         5.9965434681        9.3694865788       21.2794947497
  H        17.7716429138        5.2831805959        8.2617599333
  H        18.1728271274        3.8872766195        7.3083911714
  C        19.5528782271        5.6339215458        7.0152947762
  H         5.2951962791        7.5096576064        2.8235215053
  H         3.8256935340        6.5658661883        2.3331423098
  C         4.4325254864        8.2525283274        1.1192978448
  H        12.6815221982       -1.9041789541       -2.3108681460
  C        13.1604015729       -0.4723826498       -3.6199639139
  H         5.2728535020        9.0070797216       21.9705502621
  H         5.6478697556       10.4051852121       21.0373213744
  C         7.4128430887        9.2983937035       21.9842306355
  H        20.0433836010        5.3158457377        7.9498717489
  H        19.3820805515        6.7048398285        6.9248113652
  C        20.2267536574        5.0379097374        5.8301789901
  H         5.3559351213        8.8575993545        0.9944140722
  H         4.0078071850        7.8390091888        0.1238164430
  C         3.3297686443        9.1054219411        1.7435164968
  S        13.5197847834        1.1242113186       -4.0679897491
  C        13.3386456001       -1.4524242343       -4.7254904014
  H         7.5515718908        8.5180895784       22.8013259301
  H         7.6385340234       10.2160185665       22.5007781694
  H         8.2128846555        9.1641385359       21.1563396501
  H        19.8785039119        4.0838974353        5.6497798781
  H        20.0060108493        5.5815041079        4.9135954321
  H        21.3020579023        4.9993368216        5.9070097444
  H         2.8864638232        9.6721174077        0.8762252403
  H         2.5151898148        8.5488300048        2.2354382808
  H         3.7969880939        9.7580378225        2.5240979848
  C        13.7996890269        0.5140364042       -5.6690157593
  N        13.7075110465       -0.8161329236       -5.8145448201
  O        13.0859414191       -2.6550797017       -4.5518106975
  S        14.6549764850        1.3545553072       -6.9893083832
  C        13.7262138337       -1.5149567710       -7.1205723544
  H        13.8889712485       -2.5651815527       -6.9422979498
  H        14.4496329461       -1.1822247685       -7.8431708893
  C        12.3964501282       -1.5102010395       -7.9542812479
  H        11.5711015422       -2.0956949589       -7.4959836383
  H        12.4984714135       -1.8860940161       -9.0162947620
  H        12.0172480629       -0.4630285202       -7.9195170558
  H        -4.4372068690       14.2093246220       16.9716193342
  C        -3.7948545026       13.3839834624       16.6442607115
  H        -4.4293170524       12.5128704878       16.7625425088
  C        -2.6266979232       13.2058007286       17.5186999992
  C        -3.4848175855       13.3042564802       15.1868712463
  C        -3.1130484586       13.1921919818       19.0065491916
  H        -2.1163994199       12.2052108814       17.2870774575
  H        -1.8438400717       13.9146471615       17.2481622638
  H        -4.0193888797       14.0017305060       14.5628333531
  H        -2.4596070412       13.6329867444       15.0789555309
  H        -3.7654885540       12.3310893323       14.7463443648
  C        -1.9659760650       13.4043388023       20.0299721776
  H        -3.5426803854       12.2101976608       19.2921816634
  H        -3.9107568101       13.9366185179       19.1517982885
  C        -2.3060821234       12.9222183413       21.4366794003
  H        -1.2715723294       12.7338478429       19.5321754003
  H        -1.5897165749       14.4367166060       20.0873478726
  C        -1.0898696216       12.4163070857       22.2473927746
  H        -3.1233002702       12.1319090842       21.4130566137
  H        -2.7453295825       13.7408061192       21.9513911358
  C        -0.0920828785       13.4444657108       22.7857769233
  H        -1.4964456116       11.8521947668       23.0759496571
  H        -0.6881050723       11.6081629502       21.5624279621
  C         1.0733167803       12.7659860100       23.5466216308
  H         0.3533564718       13.9972422403       21.9203683118
  H        -0.6041705030       14.1812582190       23.4353741046
  C         1.5320898099       11.4748849789       22.9181040033
  C         0.5727109214       11.9996317871       24.7481086966
  C         2.2903263469       13.6722517167       23.8734390322
  C         1.2251317055       10.3367493860       23.6233527377
  C         2.0188593005       11.2165129082       21.6501821105
  C         0.6229690176       10.6681898420       24.8817423947
  C         0.0886309540       12.5577776737       25.9518168824
  H         2.5775394395       14.1312020338       22.8731617461
  H         1.9374161389       14.3941933520       24.5620429767
  C         3.6199577354       13.0155243523       24.3556472207
  S         1.6111920769        8.9200735753       22.8439034781
  C         2.1928221398        9.8339620782       21.4794246047
  H         2.1623187194       12.0079451060       20.9308236425
  C         0.1743372118        9.9810787609       25.9564702365
  H         0.0734528069       13.6435904054       26.0013104308
  C        -0.3468559222       11.8879650307       27.0927974665
  H         3.7737386567       12.0212054625       23.9100904132
  H         3.4906369065       12.6695692413       25.3813034017
  C         4.8053267199       13.9561369351       24.4117098193
  C         2.5822222311        9.0945316731       20.2021299780
  C        -0.2740334025       10.5514215990       27.1461940440
  H         0.2088206291        8.8412190425       25.8659979542
  C        -0.7140404304       12.1903190070       28.4343521363
  H         5.5551927070       13.5509328437       25.0603141058
  H         4.5023493637       14.9025022056       24.8782908415
  C         5.4117134986       14.3088265517       22.9736901849
  C         2.4339228513        7.7144086216       20.0168351130
  C         3.1313217476        9.9329960725       19.1269110618
  C        -0.6639223432        9.7894900029       28.3933423436
  C        -0.9601566183       11.0596432717       29.1933278310
  S        -0.9098785104       13.6118100394       29.2920941965
  H         6.1658161136       15.1396200277       23.0440234267
  H         4.5293887845       14.5656862015       22.3366718860
  C         6.0736418169       13.0714140533       22.3651735484
  N         2.1928698287        6.7242200273       21.0210467958
  C         2.6742866903        7.1853507304       18.7476857149
  C         3.4432802349        9.4002831013       17.8922985788
  H         3.4820556735       10.9302462840       19.3306570964
  C         0.4987119354        8.9021771323       28.9911676297
  C        -1.9423839527        8.9385729653       28.1506107382
  C        -1.3270372180       11.3689547528       30.5352805556
  C        -1.3433460360       12.7496135802       30.7360278678
  H         7.1035690425       12.8927206128       22.7575266569
  H         5.6736233461       12.1968701265       22.7917612904
  C         6.1436257196       13.1259334266       20.8356581754
  S         2.2703236846        5.3205571226       20.3317458824
  N         2.5563083451        5.7949521535       18.8096548537
  C         3.0132107121        7.9944448497       17.5875401764
  H         4.0155542142       10.0176465970       17.2105942391
  H         0.6723924984        8.1803569109       28.1251370659
  H         0.1044077060        8.4106382492       29.8877734343
  C         1.7854813832        9.7575944842       29.2793586376
  H        -1.7965272503        8.1691083933       27.3747731603
  H        -2.0293689770        8.4285367114       29.1209963981
  C        -3.1707408080        9.7686521034       27.8031493592
  H        -1.4723518549       10.6115239057       31.3159901025
  C        -1.5836532570       13.4690048687       32.0149925638
  H         5.9920173759       14.0922101030       20.4478275682
  H         5.4096315954       12.4188097715       20.4544715602
  C         7.5355692719       12.7367923369       20.3752424565
  C         3.2205091305        7.3048350942       16.3892482420
  H         2.0312047766       10.5721999502       28.5198875637
  H         1.5345048009       10.3231314653       30.1790858304
  C         3.0130068491        8.8195168552       29.5562681109
  H        -3.0000520868       10.4451259871       26.9481917311
  H        -3.4345410329       10.4723733164       28.5788523095
  C        -4.4102263633        8.9557728668       27.5310533256
  C        -1.6275070918       14.8543146221       32.1868437286
  C        -1.8916560399       12.6949190315       33.2795599895
  H         8.2652816293       13.3819495903       20.8712348530
  H         7.7158346646       11.6587844749       20.6992921859
  C         7.6331660616       12.9037968310       18.8361152408
  H         3.0544662596        6.2151827491       16.3979104629
  C         3.6607622178        7.6402188820       15.1437993574
  H         3.2750739686        8.2620466181       28.6446535235
  H         2.6281855721        8.0795486696       30.2753559396
  C         4.2350270037        9.5510869452       30.2504767133
  H        -4.3362308227        8.3416871839       26.6635879048
  H        -4.4791249040        8.1824592128       28.3031194638
  C        -5.7594130188        9.7021695949       27.4137680370
  N        -1.3238210998       15.7203926465       31.1863935853
  C        -1.8435508303       15.4548191642       33.4239132212
  C        -2.1973394392       13.2626169296       34.4658429572
  H        -1.8310286406       11.6387539705       33.2161134200
  H         7.9151280392       13.9491802932       18.6922822275
  H         8.4209805680       12.2571517781       18.4930907798
  H         6.7791088957       12.6465516917       18.3055384909
  S         4.1698582489        9.1990005317       14.6270791930
  C         3.7673079803        6.5364852966       14.1637937931
  H         4.2959890389       10.5762763183       29.8939731437
  H         3.8572649196        9.6309938981       31.2826648902
  C         5.6627064881        8.8944233618       30.0072021806
  H        -5.7596841974       10.4565323100       28.1811047511
  H        -6.5683607330        9.0382340278       27.6744784415
  C        -5.9390613655       10.3276580918       26.0351944051
  S        -1.3155426053       17.1937264357       31.8716467154
  N        -1.6820106700       16.7730657573       33.3755978286
  C        -2.1699686210       14.7577811871       34.5802893930
  H        -2.5379722518       12.5525992432       35.2724648798
  C         4.4251450488        8.4080481348       13.0506796345
  N         4.2252226895        7.0604811947       13.0089292790
  O         3.4948929617        5.3977852830       14.3060503304
  H         6.4530037518        9.5963974915       29.6886350453
  H         5.6217817849        8.1470102399       29.2273314758
  C         6.0532317385        8.0750412794       31.2309452226
  H        -5.2532918633       11.2020948159       25.9489877704
  H        -5.5099553461        9.6805466928       25.2805272583
  C        -7.3998644909       10.7357941199       25.8968470240
  C        -2.5552640145       15.5335502712       35.7141803872
  S         4.7817465704        9.2875873775       11.6029309426
  C         4.2862397580        6.2576690341       11.8306825004
  H         6.7179566008        8.7847465143       31.7264370317
  H         5.2384862406        7.7600244787       31.8325804168
  C         6.7487783883        6.7816760350       30.7951631346
  H        -7.4079520994       11.5262491136       25.1865010649
  H        -7.6027445541       11.1612519275       26.8496414776
  C        -8.3023668181        9.5308766932       25.6826844650
  H        -2.4436659069       16.6425659497       35.6615006752
  C        -3.1504502713       15.0847983936       36.8655182148
  H         5.1703496469        6.4742120770       11.2297209923
  H         4.3792149637        5.2139856555       12.1136279019
  C         2.9353825666        6.2696797199       11.1270968200
  H         7.5961441613        6.9588981344       30.1332434346
  H         6.0556454723        6.3015070292       30.0930229488
  C         6.9676031591        5.7091881835       31.8787012524
  H        -7.8826666239        8.9659230716       24.8336940570
  H        -8.4305588597        8.9324300014       26.6455577916
  C        -9.7051226007       10.0177617368       25.3321588349
  S        -3.9960987501       13.5899850681       37.1019790038
  C        -3.0163294010       15.9933835672       38.0279689283
  H         2.4372422699        7.2463827756       11.2739642442
  H         3.1703314047        5.9806309379       10.0825008956
  H         2.2531587555        5.5226217567       11.5043039828
  H         7.6270880414        6.1670493396       32.6253461145
  H         7.4846051461        4.8195015607       31.4916021874
  H         5.9914162244        5.3674283834       32.2368074259
  H        -9.8558630806       10.1118940046       24.2667617527
  H        -9.9236855760       10.9526759489       25.8073381538
  H       -10.3394142201        9.2344509777       25.7259095745
  C        -4.4628927661       14.2775906905       38.6701678677
  N        -3.7982612655       15.4138211784       38.9545278335
  O        -2.4544676489       17.0933679779       38.0662062643
  S        -5.1448332885       13.2924740197       39.9788430601
  C        -3.9314509588       16.0966333538       40.2415026755
  H        -4.4245134390       17.0154461884       40.2301135676
  H        -4.7093408883       15.6947253196       40.9310490813
  C        -2.6688805547       16.1834643503       41.1332077554
  H        -2.2388076237       17.1556672061       40.7808722326
  H        -2.8867787068       16.1495468277       42.1845817380
  H        -1.9873022002       15.3591039504       40.8429706430
