352
i=
  H         3.1244885269        1.5562297342       13.8473355603
  C         3.8453027430        1.6347093720       13.0077526361
  H         4.2770130487        0.6130148670       12.8918548954
  C         2.9653241510        2.0813383871       11.7569040564
  C         5.0332314309        2.5823789710       13.3202962784
  C         3.8628792681        2.3668899268       10.4566820072
  H         2.3779528176        2.9837619516       12.0256003160
  H         2.2648016548        1.2224336859       11.5802426120
  H         6.0139190128        2.0878742785       13.1824827817
  H         4.9178827486        2.8534855773       14.3030922621
  H         4.9752362518        3.4875646243       12.7348161628
  C         4.7833679615        1.3139748466       10.0460893658
  H         3.1442144191        2.6484880437        9.7166884344
  H         4.4318979445        3.2585693892       10.5220721437
  C         5.4433357708        1.5456675181        8.6552101378
  H         4.2926495369        0.3542370620        9.9256794770
  H         5.6575049975        1.2200704574       10.8019126555
  C         6.7606257193        2.3609165530        8.7425514102
  H         4.6573112071        1.9284015113        7.9647376892
  H         5.8238637028        0.6369036305        8.2445515156
  C         7.9310557230        1.5615289522        9.2158408452
  H         6.8306348082        2.7815283862        7.7408386581
  H         6.4926709886        3.1946485271        9.4176732890
  C         9.1683884683        2.3911239774        9.4950560263
  H         8.2435224581        0.8604671991        8.4232569305
  H         7.6668016691        1.0466741944       10.1734577578
  C         8.8337800965        3.7475950947       10.1540017398
  C         9.6396775703        3.1213238709        8.2926274996
  C        10.2545857511        1.6032036581       10.2224105748
  C         9.1995845786        4.8447055192        9.3867983966
  C         8.3053919237        4.1800708800       11.3835152289
  C         9.6990310440        4.4708877568        8.1806435038
  C        10.0361864982        2.4758297527        7.1335254667
  H         9.9282217333        1.3639592501       11.1902380249
  H        10.4786749115        0.6747608490        9.6792739617
  C        11.5875390372        2.4630897754       10.4569161036
  S         8.9648773551        6.3394171729       10.1462272997
  C         8.2945408619        5.5575269349       11.5302270403
  H         8.0610767506        3.4385140767       12.0499302722
  C        10.2068914414        5.1086465731        7.0311300397
  H         9.9484654456        1.3737329543        7.1613403587
  C        10.5528974102        3.0249641354        6.0066837481
  H        11.5174201415        3.5877285957       10.6680469964
  H        12.1151878092        2.5353491360        9.4898280175
  C        12.5320010263        1.8921921842       11.5687798879
  C         7.7814105668        6.3213501875       12.7362146376
  C        10.6187504720        4.4165202117        5.8855909598
  H        10.1606092452        6.1535157298        6.9697281958
  C        10.9178758951        2.6182961470        4.7415095096
  H        13.6154178313        2.1432163433       11.3703031114
  H        12.4941476100        0.8161740504       11.6217859838
  C        12.3655998894        2.4526301207       12.9745415734
  C         7.8614841566        7.6801543631       12.9623456291
  C         7.1354596552        5.5150115160       13.8453315905
  C        11.1059133063        5.1097835649        4.6253847870
  C        11.2808752271        3.7074369975        3.9548079128
  S        11.1155374494        1.1643417334        4.0239715401
  H        13.2680629037        2.9416029475       13.2109737869
  H        11.6200393384        3.2492203346       12.8217268475
  C        11.9798535569        1.5179796753       14.0994778305
  N         8.3050417001        8.5661824295       11.9709399783
  C         7.4729822767        8.3157837663       14.1064740868
  C         6.8886167462        6.1147568044       15.0888940688
  H         7.0006567310        4.4879923782       13.7699779229
  C        12.4305458629        5.8267983437        4.8519817170
  C        10.0079588053        5.9409523561        3.9100611149
  C        11.7705141449        3.2673704894        2.7470080103
  C        11.6934034601        1.9226750239        2.5878585556
  H        12.7438275433        0.6834785396       14.0263195982
  H        11.0318281975        0.9630450366       14.0739780554
  C        12.1033265978        2.2740619237       15.4144555323
  S         8.1197345445       10.0783053841       12.5777666380
  N         7.6457894566        9.6931857154       14.0575935989
  C         6.9322281445        7.6165179410       15.2317221692
  H         6.7700668702        5.4716735739       15.9377088037
  H        12.2990353792        6.5660777685        5.7087419122
  H        12.7766002698        6.3128277708        3.9078951625
  C        13.5152675469        4.9035630469        5.3900760225
  H         9.3627807121        6.4470119869        4.5906873487
  H        10.4520267299        6.7441835765        3.3333058646
  C         9.0488180869        5.0637791601        3.0451240078
  H        11.9495578196        4.0325986923        2.0021098383
  C        11.8208297383        1.1884723092        1.2836390203
  H        12.1059682715        3.3367825149       15.1357095994
  H        11.2098296239        2.1453438476       16.0897328712
  C        13.2574414974        1.7284820841       16.2322552859
  C         6.6958846554        8.3146586002       16.4654558877
  H        13.1809350600        4.3911922759        6.3410095452
  H        13.7923142915        4.0821986655        4.6797090850
  C        14.7772356758        5.7514398708        5.6133594209
  H         8.5356070709        4.3701577980        3.7915573578
  H         9.5705802487        4.5277132559        2.2890965350
  C         7.9975960314        5.9353364892        2.2701494504
  C        11.8266502931       -0.2327923859        1.1999555743
  C        12.0996992833        1.9555403341        0.1066520404
  H        14.1680688028        1.9168787936       15.7342735240
  H        13.0916767387        0.6574421129       16.0457798188
  C        13.0812600803        1.9932423812       17.7914504122
  H         6.5881502329        9.4024151101       16.3615860437
  C         6.5442261992        7.8830817037       17.7430249523
  H        14.3724784548        6.6453855225        5.9243122319
  H        15.2563461943        5.9911171873        4.7184776515
  C        15.7047718512        5.0628586924        6.6324438053
  H         7.4739741715        6.5580377439        2.9983519186
  H         8.4841002316        6.6535130687        1.5644210884
  C         6.8633766823        5.0783938630        1.7310425437
  N        11.5662005988       -1.1839865122        2.1608728729
  C        12.1032490732       -0.8669302945       -0.0048268338
  C        12.3519592199        1.3336841964       -1.1134915384
  H        12.0830131749        3.0170654034        0.0167974769
  H        13.0851484465        3.0740720869       17.9121915287
  H        13.9441940626        1.5651531387       18.4355122673
  H        12.1245144835        1.6110309360       18.1339147366
  S         6.3929912204        6.2540333992       18.4313644630
  C         6.5329915497        8.9315833147       18.7976120511
  H        15.2249343850        4.9428955245        7.6481314055
  H        15.8786233600        4.0498763928        6.3262793557
  C        17.0477117542        5.7868517200        6.8473815091
  H         6.2959496073        4.4215775148        2.4170249791
  H         7.3478724252        4.3995012033        1.0468258387
  C         5.8507973246        5.8453712916        0.9100852384
  S        11.6090944593       -2.6527010092        1.5254076021
  N        12.0447730779       -2.2421902317        0.0532029315
  C        12.4837595326       -0.1554095181       -1.1664311459
  H        12.4663086363        1.9145041768       -2.0237357161
  C         6.2855180662        7.0162898591       19.9797389352
  N         6.3559772612        8.4061541557       20.0039138216
  O         6.5261203244       10.1236980206       18.4869772920
  H        17.2619471577        6.6370242443        6.1378739217
  H        16.9109942279        6.2446068718        7.8842283250
  C        18.2009017503        4.7966398399        6.8784942467
  H         6.4530854472        6.3973332923        0.2103047485
  H         5.3039787297        5.1127695026        0.3906867260
  C         4.9660760363        6.7026260640        1.8214467794
  C        12.8900756186       -0.9050333340       -2.2858711877
  S         5.9705936526        6.0310274563       21.4672032091
  C         6.3862184287        9.3158257229       21.2247134984
  H        17.9569226355        4.0222403194        7.5997183974
  H        18.2200336752        4.2376134350        5.9024508092
  C        19.4759962478        5.4893146624        7.1417173954
  H         5.2517014323        6.7349491222        2.7969578863
  H         3.9359315245        6.2478110496        1.8269015393
  C         4.8199052041        8.1732170078        1.2694783274
  H        12.7490926173       -1.9672792465       -2.2957976774
  C        13.3586534169       -0.5580134793       -3.5110392099
  H         5.6446178098        9.0302820291       21.9907721164
  H         6.2262811951       10.3833804305       20.8346974125
  C         7.8297487443        9.4810523844       21.8012735127
  H        20.0455380336        5.0355887394        7.9634217720
  H        19.2231434078        6.5192564780        7.5011211959
  C        20.2820767159        5.4940178389        5.7854735715
  H         5.7463633734        8.5874838244        1.1035475062
  H         4.3995524361        8.1535538890        0.2967290674
  C         3.9300142284        8.9616142710        2.1168711856
  S        13.7224098193        1.0354087109       -3.9719046483
  C        13.4431234024       -1.6449785034       -4.5900086878
  H         8.2281592185        8.4799378129       21.9906017139
  H         7.9035209352        9.9566350842       22.7345818766
  H         8.4762226316        9.9664293366       21.0527232015
  H        20.5909020515        4.4579038459        5.5421167091
  H        19.5945841703        5.9169911566        4.9744465572
  H        21.1692095746        6.1781663272        5.7574679115
  H         3.9442426977        9.9387664401        1.6185719392
  H         2.9159273348        8.6117222201        2.1642861011
  H         4.2945098516        8.9733228953        3.1293748636
  C        14.2726384919        0.2780854911       -5.5305562995
  N        14.0687642453       -1.0304571354       -5.6629315322
  O        13.2506288685       -2.8510225512       -4.4989296158
  S        14.7684120553        1.2101770475       -6.9711258772
  C        14.3537518067       -1.6743470427       -6.9121462273
  H        14.7163283482       -2.6471844768       -6.5830659225
  H        15.2816403777       -1.2948360356       -7.3368885978
  C        13.1637083623       -1.6963316911       -7.8307125154
  H        12.2558850789       -2.0943439667       -7.4751786510
  H        13.3455036632       -2.1502451516       -8.7847504249
  H        12.9154154393       -0.6780596543       -8.0403547393
  H        -4.5068889984       13.9424360726       16.7801624752
  C        -3.8303215419       13.0837007104       16.6938023465
  H        -4.3454817771       12.1968873584       16.9771438422
  C        -2.6208592888       13.4809350988       17.4877218504
  C        -3.4002037054       12.7489665769       15.2432646742
  C        -3.0256497317       13.5249934715       18.9215075496
  H        -2.0340485596       12.5533060740       17.3400135188
  H        -2.1159500796       14.2714234179       17.0390748529
  H        -3.8480183467       11.8046091545       14.9137546985
  H        -3.6879115534       13.5503913167       14.5630433092
  H        -2.3610240244       12.4207054429       15.1074910387
  C        -1.8314102777       13.1205734171       19.7558534964
  H        -3.8303141679       12.8362668686       19.1944202733
  H        -3.4673737973       14.4894413465       19.1952624678
  C        -2.3065237059       13.2687560707       21.1993429822
  H        -1.5088254894       12.1037715524       19.4997471870
  H        -0.9039025207       13.7130179415       19.6294358824
  C        -1.3438796711       12.5608034926       22.1735156768
  H        -3.1692530919       12.5637599124       21.2742220588
  H        -2.7136597661       14.1994448837       21.4430159295
  C        -0.2590984549       13.4669223375       22.7463330739
  H        -1.9375681874       12.1912000581       22.9782193031
  H        -1.0053924929       11.6864794412       21.5626947365
  C         1.0001953449       12.6753483443       23.3327615591
  H         0.0201474744       14.1056542277       21.9239633780
  H        -0.6167950228       14.1297530227       23.4751267267
  C         1.2727080778       11.3245559189       22.6623051298
  C         0.5263791386       11.9980536284       24.6120853790
  C         2.2496257612       13.6265871938       23.4184329140
  C         1.1193833031       10.2845861524       23.5515988365
  C         1.7356283348       10.9684428088       21.3720160340
  C         0.6095689137       10.6838264826       24.7500823670
  C        -0.0686550183       12.6491788065       25.7247727059
  H         2.3607692747       14.0636975981       22.4108069949
  H         2.1091949881       14.3632598161       24.1122437668
  C         3.4874172065       12.8170077424       23.7339553950
  S         1.6704847866        8.8400711187       22.9179374250
  C         1.9584479831        9.6308430563       21.3806075977
  H         1.9366887082       11.7069976692       20.5679551080
  C         0.2521458962       10.0448183834       25.9218910449
  H        -0.2134026981       13.7008262879       25.7218225068
  C        -0.4058806515       11.9948096347       26.9098621199
  H         3.8373332588       12.2957573037       22.8737191001
  H         3.1354191233       12.1614865714       24.5024310604
  C         4.5517906564       13.7557429608       24.4119383787
  C         2.4379949410        8.9255356724       20.1319616411
  C        -0.2762229612       10.6803004835       27.0423530058
  H         0.3146353927        9.0220580123       26.0516511402
  C        -0.8246921362       12.3177640622       28.2228910245
  H         5.2624501779       13.1928478770       25.0193523734
  H         4.1044454742       14.4663180620       25.1381363966
  C         5.2827661087       14.4310701833       23.2491078380
  C         2.6272781321        7.5193643114       20.0334642982
  C         2.8234162710        9.6782035797       18.9344284408
  C        -0.6014059681        9.9219213536       28.2923309682
  C        -0.9119692882       11.2220069988       29.0691301310
  S        -1.1796336625       13.7711128117       29.0789518146
  H         5.8667741573       15.2253766907       23.6668852838
  H         4.5090149702       14.8871216851       22.6332373602
  C         6.1863655387       13.4653183542       22.4631378992
  N         2.4989120244        6.5314136363       21.0381045994
  C         2.8733713064        6.8713784599       18.7897618792
  C         3.2979342816        9.0504114743       17.8345996840
  H         2.7183985361       10.7480717071       18.9498211118
  C         0.4548757851        9.1247172307       28.8862823743
  C        -1.8813527072        9.0591723125       28.2190239499
  C        -1.2764416128       11.4957138044       30.3822123328
  C        -1.3386749078       12.8415727829       30.6210618241
  H         7.2154454664       13.5426526479       22.8674634816
  H         6.0062912129       12.4326580809       22.6250510141
  C         6.1966085115       13.7832344139       20.9239444372
  S         2.5983654387        5.0341646706       20.3466562049
  N         2.8126464970        5.4515897860       18.8050234257
  C         3.2683156380        7.5815474315       17.6172393786
  H         3.5904325895        9.7286520208       17.0395103852
  H         0.7007949534        8.3418439346       28.1465155554
  H         0.1553356307        8.8187962811       29.8704025246
  C         1.8121702769        9.9160978130       29.0748892537
  H        -1.7614755364        8.2727961110       27.4494126899
  H        -2.0845581599        8.6113754134       29.2172915346
  C        -3.1654901331        9.7873640047       27.7762142949
  H        -1.4667416379       10.6864696393       31.0979789684
  C        -1.5197674527       13.5108210073       31.9901537081
  H         5.8573060398       14.7540572883       20.6255380596
  H         5.5731428844       12.9792038980       20.4626906081
  C         7.5927342470       13.7022866448       20.4112159258
  C         3.5682404176        6.9784734372       16.3375267683
  H         2.1726821967       10.3097854118       28.1047791555
  H         1.6520918001       10.7054524822       29.7680494650
  C         2.9297404853        9.0268735527       29.7183827390
  H        -3.0262783349       10.2112391323       26.7832034172
  H        -3.3905529233       10.6192695120       28.4552743276
  C        -4.4210588364        8.8379567842       27.8491239781
  C        -1.6089058013       14.8889269289       32.1949566724
  C        -1.5380398313       12.6741495068       33.2361838124
  H         8.2076056501       14.4593408973       20.8999642301
  H         8.1815122708       12.7762709096       20.7787982513
  C         7.6144987581       13.7910960664       18.9101220019
  H         3.3835538230        5.8901093052       16.3482491474
  C         3.7899890114        7.4278722645       15.0431259305
  H         3.1362501713        8.1981248616       29.0453678130
  H         2.6017401157        8.5520792238       30.6642674205
  C         4.2385580187        9.8148064810       29.9977639255
  H        -4.2178193638        7.9605699338       27.2860552860
  H        -4.6986342073        8.4738857144       28.8464899880
  C        -5.7442346562        9.4194902026       27.2818480375
  N        -1.3472948336       15.8789621388       31.2105751814
  C        -1.8519647074       15.4787904593       33.3852752887
  C        -1.8429234379       13.3134589091       34.4800026039
  H        -1.3506964717       11.6014599634       33.1422056486
  H         8.4538986018       14.4209078515       18.5369423497
  H         7.7614246788       12.8659160788       18.3317139060
  H         6.8404242334       14.1761756589       18.3168437520
  S         3.9757678070        9.0102548414       14.5094761882
  C         3.6602658806        6.4173286699       13.9770272050
  H         4.4710773423       10.5533399856       29.2664184480
  H         4.3417771883       10.1438925927       31.0119244442
  C         5.3611544706        8.8197643769       30.0527567670
  H        -5.9581496072       10.3569799321       27.8145603785
  H        -6.6183046867        8.8203793796       27.5622623400
  C        -5.8374063887        9.6940840359       25.8096636742
  S        -1.4590065498       17.3350182716       31.9291122503
  N        -1.9390248657       16.8531062381       33.3821694815
  C        -2.0535476967       14.7687435401       34.6166680249
  H        -1.9363331013       12.7140279373       35.3258830111
  C         4.1295506691        8.3060358069       12.9418976403
  N         3.9403849055        6.9717932182       12.8146709520
  O         3.4916298333        5.1982775456       14.2077848796
  H         6.3357135755        9.3376724663       30.0200583575
  H         5.2984141237        8.1837921549       29.1946659269
  C         5.2950254526        7.8652826229       31.3279865698
  H        -5.0830873383       10.4262038010       25.5132180466
  H        -5.6170200124        8.8049926419       25.2899721616
  C        -7.2167924660       10.2762674595       25.4287004109
  C        -2.5370203865       15.4488515852       35.8329015946
  S         4.4753734150        9.4555932619       11.6123182065
  C         3.9275409778        6.3278561910       11.4376878503
  H         5.4698010494        8.5542448915       32.1865015869
  H         4.3578600782        7.3437420721       31.3391073951
  C         6.4126815284        6.8198106734       31.1531599166
  H        -7.1980191289       10.7694828355       24.4471391480
  H        -7.4668752867       11.0835808013       26.1802451174
  C        -8.3596137141        9.1722679102       25.4149405289
  H        -2.0491149429       16.3955054870       35.8801001111
  C        -3.3527000968       15.0158981502       36.8479865239
  H         4.6712561232        6.8924835597       10.8329175800
  H         4.2866141064        5.3113128982       11.4628543924
  C         2.5393954842        6.3089530931       10.8250603740
  H         7.4176018392        7.2832955781       31.1004565778
  H         6.2907263215        6.3161657078       30.1565946440
  C         6.4435696434        5.7244299716       32.2197353342
  H        -8.1056353849        8.3541142998       24.7737126471
  H        -8.6804288948        8.7556338619       26.3688389883
  C        -9.6191352692        9.8133951909       24.8405692221
  S        -4.0918785156       13.4189667119       36.9311887464
  C        -3.4645255080       15.9003499484       38.0127816643
  H         2.5508863909        7.0990347549       10.0758979329
  H         2.2721312285        5.3366008565       10.3869888852
  H         1.7721370787        6.6351901228       11.4802479427
  H         6.7610709600        6.1871100611       33.1593727347
  H         7.2121468236        4.9470792828       31.9766934115
  H         5.4512887698        5.2748517849       32.1280311765
  H        -9.4485231506       10.3405475530       23.8979812526
  H       -10.1915547452       10.4826744248       25.4848743102
  H       -10.3494204561        9.0583501449       24.4776961806
  C        -4.4731240714       13.8926528620       38.5889460585
  N        -4.0461535794       15.1751544626       38.9421265598
  O        -3.2059215851       17.1329976785       37.9294560995
  S        -5.1256884294       12.7574588412       39.8957493876
  C        -4.1061800682       15.7655587037       40.3216810560
  H        -4.4609832313       16.7524174106       40.0481272302
  H        -4.9316971038       15.1665430979       40.8587729153
  C        -2.7580473575       15.6632575017       40.9970294436
  H        -2.0795812671       16.4799463840       40.7223066128
  H        -2.9166715551       15.6510736403       42.0196810024
  H        -2.2306908445       14.7653184119       40.7254750808
