352
i=
  H         5.6994954297        2.3324166812       12.9464909711
  C         4.6611199943        2.7328937694       13.0101959402
  H         4.8447903946        3.8278515231       12.9575460109
  C         3.6909476787        2.3264023682       11.9523826956
  C         4.0628730669        2.5509388938       14.3913613215
  C         4.2001140666        2.6721476446       10.5935371886
  H         2.8007812440        2.8712473618       11.9221108332
  H         3.4195888620        1.2849177346       11.9415143149
  H         4.7071349963        3.1168400391       15.1032430636
  H         3.9492387937        1.5373025219       14.7221868723
  H         3.1006575241        3.0171414446       14.5113329354
  C         5.1925847490        1.5944662867       10.0314062452
  H         3.4253567778        2.7327869045        9.8694156783
  H         4.6240041352        3.7176514799       10.6132873258
  C         5.7418078821        1.9249162666        8.6534869909
  H         4.6288864848        0.6771876365       10.0152231559
  H         5.9941688463        1.4884875809       10.7447607852
  C         7.0236132126        2.7012331423        8.7121637098
  H         4.9943060565        2.3605160074        7.9991049179
  H         5.9052683012        0.9500426762        8.1873703660
  C         8.2954256658        2.0081408029        9.2875030909
  H         7.2371288730        3.0579988143        7.7582577703
  H         6.8191302317        3.6204974109        9.2417483492
  C         9.4290010908        3.0112208297        9.3355200449
  H         8.6365679908        1.1963200397        8.6866572931
  H         8.1271590941        1.5934576474       10.2739930404
  C         9.1265315599        4.2870260070       10.0427537371
  C         9.8178841020        3.6951954425        8.0664963725
  C        10.7532376017        2.4243942993       10.0216865782
  C         9.2630159764        5.4102252443        9.2152823416
  C         8.8202773167        4.6381807235       11.3417591200
  C         9.6490314637        5.0419118966        7.9473945495
  C        10.3450830459        3.1218596047        6.9484434987
  H        10.5436824280        1.9111243236       10.9710622684
  H        10.9398699197        1.5446170473        9.4010110772
  C        11.9379077067        3.3850739756       10.1482964385
  S         8.8961483809        6.8684170584       10.0341575617
  C         8.4986028008        5.9598014600       11.4010374874
  H         8.6078345771        3.9001040693       12.0916308281
  C         9.9559467509        5.6788952543        6.7564662071
  H        10.5517578248        2.0865496671        6.9896542721
  C        10.5452312921        3.7875746747        5.7666567509
  H        11.7463620864        4.3431003266       10.4312631392
  H        12.3699575649        3.5839251630        9.2088032692
  C        12.9471126561        2.7535337253       11.0508600334
  C         7.9400304720        6.6342466852       12.6235719551
  C        10.3846953167        5.0945325002        5.6004360570
  H         9.8442256762        6.7681656432        6.7290823317
  C        10.9344894020        3.4017698195        4.5513420651
  H        13.9308743632        2.9060982473       10.6058524018
  H        12.7237177302        1.6895019568       11.1558749439
  C        13.1138284662        3.3279919943       12.4992234356
  C         8.0266631048        7.9816568198       12.9048459637
  C         7.3826568378        5.7934054989       13.7034249839
  C        10.6697667145        5.8111763585        4.3202641809
  C        10.9711737586        4.4955900964        3.6719471642
  S        11.2322614727        1.8887779866        3.8135258280
  H        14.1187076843        3.7787696467       12.6500144453
  H        12.2677896313        3.9887774526       12.7125073575
  C        13.1233205232        2.2137243269       13.5077300284
  N         8.4640813129        8.9596264190       11.9836746671
  C         7.7071493412        8.5140977800       14.1236844299
  C         6.9695017727        6.3405520384       14.9803760216
  H         7.1514247540        4.7759669706       13.4859433762
  C        11.8905557112        6.6658199523        4.5342846584
  C         9.4914692283        6.5219842952        3.6424649302
  C        11.3650120610        4.0459335081        2.3703604853
  C        11.4245032513        2.6784156784        2.2909115178
  H        14.0828568384        1.6282033901       13.4531612241
  H        12.4616799546        1.3979418890       13.2042904605
  C        13.0022671373        2.6004727617       14.9564375432
  S         8.2858366839       10.4489094375       12.6481058902
  N         7.8265581242        9.8897071836       14.1005542697
  C         7.2045367038        7.7638979828       15.2129595604
  H         6.5056681681        5.7190172312       15.7707022822
  H        11.6724610155        7.2311104068        5.4131275004
  H        12.0696884721        7.3618240332        3.7129705560
  C        13.2366362276        5.9190373622        5.0005345139
  H         9.1939623054        7.3077178378        4.3183504004
  H         9.9007510243        7.0696656762        2.8200329963
  C         8.2709469937        5.5888781489        3.2193542785
  H        11.5967854200        4.6729936404        1.5931065352
  C        11.6830318000        1.8605886105        1.0383412681
  H        13.9623122687        2.9745863286       15.2749424300
  H        12.3135035296        3.4189003698       15.0641306394
  C        12.5798851684        1.4751081265       15.8810056901
  C         6.9978596029        8.4171446835       16.4634839833
  H        12.9841316446        5.2806982809        5.9103262654
  H        13.7780228948        5.2424537549        4.3200865438
  C        14.1961019669        6.9973330642        5.3934309241
  H         7.9217820347        4.9824506315        4.0596029583
  H         8.6462849802        4.9204338549        2.4546313129
  C         7.1748722718        6.5105810275        2.6634247896
  C        11.6968993294        0.4073948365        0.9232056490
  C        12.0341340759        2.5469162424       -0.2613955504
  H        13.1147458804        0.5842177563       15.7415389541
  H        11.5116770444        1.3238952371       15.6747358868
  C        12.6318400692        1.9513407180       17.3267849178
  H         7.4004741830        9.3817539300       16.3767234587
  C         6.8528434730        7.9675232629       17.7575944623
  H        13.7869745426        7.8330637221        6.0369703006
  H        14.4843312972        7.4821939691        4.4974222408
  C        15.3461428165        6.4290969813        6.1440011522
  H         6.9197940358        7.3040964665        3.3657584319
  H         7.5014255627        6.8722773237        1.7081398534
  C         5.9431736311        5.8763736775        2.1983484446
  N        11.3737806487       -0.4641888502        1.9391246137
  C        11.9057593314       -0.2099786581       -0.2980206114
  C        12.2847454109        1.8835955506       -1.4483971075
  H        12.0463571076        3.6445707833       -0.2231859833
  H        13.0185069425        1.0957434787       17.9235720350
  H        11.6476512787        2.0736942776       17.7927626685
  H        13.2841008899        2.7782683045       17.5128365834
  S         6.5814197144        6.3465381759       18.3127731012
  C         6.8518790197        9.0149607672       18.8535251402
  H        15.6444699716        7.1517907185        6.8815091129
  H        15.2429182195        5.4692066915        6.6302093429
  C        16.4207720256        6.3267714189        5.0643309073
  H         5.6665484949        5.0022661444        2.8312922860
  H         6.0776119409        5.3730048548        1.2337125058
  C         4.8384651487        6.9533241559        2.1138941869
  S        11.3076688818       -1.9436514560        1.3065167790
  N        11.9735262277       -1.5780907968       -0.1543068749
  C        12.1781178334        0.4101931676       -1.5351495761
  H        12.5327366213        2.3452239130       -2.4112762962
  C         6.4481662984        7.0216926461       19.9357548127
  N         6.5171982790        8.3957306754       19.9916257040
  O         7.0773122294       10.2516579161       18.6652601630
  H        16.0467156969        5.9156178797        4.1574333826
  H        16.7393239328        7.4048320328        4.8648395908
  C        17.7131034198        5.6504109988        5.4537748872
  H         3.8608705726        6.4394851071        2.0765383935
  H         4.8042975829        7.5839647879        3.0014478966
  C         5.0000503800        7.9158892572        0.8605563630
  C        12.4803451825       -0.4420776990       -2.6293964457
  S         6.0134245765        6.1111130822       21.3902930137
  C         6.4888817697        9.2483132031       21.2085875791
  H        17.3608563564        4.8045323986        6.1233015631
  H        18.1319110489        5.3237875102        4.5195958928
  C        18.5214819991        6.6245488003        6.1784316464
  H         5.2904775398        7.3158494070       -0.0176303001
  H         5.9254889161        8.5305828646        0.9885510288
  C         3.9584972979        9.0095988264        0.6973600205
  H        12.2539775284       -1.5307114972       -2.5882231906
  C        13.0528753003       -0.1788054562       -3.8341560657
  H         5.6411724235        8.8590455454       21.8733842147
  H         6.1878327250       10.3141887699       20.9404097309
  C         7.9295782059        9.2649287438       21.8179772010
  H        17.8994641466        7.0148688199        6.9828710988
  H        18.8412675005        7.4389890078        5.4773391663
  C        19.8226441374        6.0292901917        6.8114379518
  H         4.4008876851        9.5578239458       -0.2006265636
  H         3.0338798555        8.5186774512        0.2804591230
  C         3.4996550596        9.7685477445        1.9349186433
  S        13.6407856937        1.3260240087       -4.4750076932
  C        13.2193510816       -1.2584075299       -4.8348898848
  H         7.9677763356        9.3352874485       22.9367971152
  H         8.5486011990       10.1128293412       21.4153968673
  H         8.4570161265        8.3526635556       21.5984844385
  H        19.6482147052        4.9551999912        7.1371001454
  H        20.7019501503        6.1740360961        6.2078796160
  H        20.0127308675        6.5953386972        7.6732976856
  H         4.4556332722        9.8899967837        2.5408898222
  H         3.2082537198       10.8025259326        1.6906654130
  H         2.5633903384        9.5440803892        2.4458036549
  C        13.9393957242        0.5580653067       -6.0213303381
  N        13.7281105155       -0.7811968400       -5.9937615417
  O        12.8952164245       -2.4504149350       -4.6578722464
  S        14.7665330928        1.2904383977       -7.3570269682
  C        13.9535129153       -1.6536827291       -7.1502153084
  H        14.2011836327       -2.6436840468       -6.8655763102
  H        14.7998349804       -1.3376159743       -7.7023297995
  C        12.7721650794       -1.6247279767       -8.1478983384
  H        12.7842128499       -2.5429681754       -8.7056242501
  H        12.7156469688       -0.7799961206       -8.8029976202
  H        11.8237360590       -1.5682225936       -7.5521836871
  H        -2.7623940022       14.9377215005       15.7591084819
  C        -2.6680425740       14.0193565598       16.1983720660
  H        -3.6259288547       13.7761238659       16.5668304991
  C        -1.7220138070       13.9645347727       17.3924131306
  C        -2.5387611177       13.0116709508       15.0870721212
  C        -2.3344511119       13.5370236964       18.7224085353
  H        -0.9288259901       13.2399207120       17.2328702906
  H        -1.1665528067       14.9121838049       17.6572339655
  H        -3.3573673170       12.3332529578       15.3313580151
  H        -2.5837976067       13.3322821170       14.0682051107
  H        -1.6809488847       12.3331344398       15.1505678937
  C        -1.2383772832       13.1523048543       19.7991539328
  H        -3.0149910017       12.6859465388       18.6412366031
  H        -2.9764916662       14.3655186778       19.0497687665
  C        -1.6891015808       13.0747930891       21.2009195284
  H        -0.8149396078       12.2228909001       19.3746191672
  H        -0.4011106690       13.8343088697       19.7837825342
  C        -0.7330411399       12.4605949904       22.2375611226
  H        -2.6238452162       12.5307187925       21.1172963105
  H        -2.0205422116       14.0922124838       21.5196446316
  C         0.3582826312       13.5055212630       22.6403482823
  H        -1.2162704647       12.2483330286       23.1672608897
  H        -0.4331391231       11.5803252523       21.7370020485
  C         1.5847678130       12.9458481190       23.3225632429
  H         0.7491365576       13.9201046320       21.7534268079
  H        -0.0271025288       14.3367397183       23.2220879285
  C         2.0940594547       11.6840833746       22.6144476410
  C         1.1700197264       12.1767177377       24.5350891035
  C         2.6938730144       14.0208178573       23.4911644821
  C         1.8334103568       10.5361733772       23.3588141911
  C         2.7656065580       11.3681814594       21.4217613979
  C         1.2740188605       10.8115814501       24.5796627554
  C         0.7589874287       12.7861208444       25.6818230306
  H         2.7497603788       14.7033344351       22.6191911881
  H         2.3235140125       14.6279750457       24.3518784997
  C         4.0244129644       13.4588113628       23.8680805051
  S         2.4551493375        9.1230008272       22.6341628300
  C         2.8079078417        9.9571938692       21.2007137334
  H         3.1163677968       12.1938214812       20.8986651290
  C         0.9273046753       10.1657470374       25.7535003644
  H         0.7846660724       13.9019752131       25.6220286633
  C         0.4595721126       12.1174403420       26.8722439747
  H         4.3273780967       12.8170654960       23.1263966693
  H         3.7836032109       12.8516228557       24.7659834105
  C         5.1190957441       14.4634080005       24.0029125535
  C         3.0809640156        9.3508058633       19.8735704276
  C         0.4561032684       10.7646674248       26.9274477968
  H         1.0319277353        9.0895994010       25.7229536365
  C        -0.0427027695       12.5092637780       28.0721404284
  H         6.0145497945       13.9543244666       24.4543629889
  H         4.6328730053       15.2127195240       24.6874309069
  C         5.6468074610       15.0853540228       22.7156211150
  C         3.0617664779        7.9617760248       19.5604511906
  C         3.2194289873       10.2742109506       18.7465402548
  C         0.0209772150       10.1390025925       28.1856191427
  C        -0.3502193202       11.4353638136       28.8616613994
  S        -0.4026619456       14.0152837886       28.8995487390
  H         5.9475306131       16.0753822628       23.0032447824
  H         4.8060678229       15.1207857472       22.0517152048
  C         6.7832963839       14.3098124393       22.0324750860
  N         2.9700758361        6.9203953543       20.4780331463
  C         3.2373440585        7.4797664535       18.2314077526
  C         3.4110837228        9.8233322128       17.4239382592
  H         3.1025503571       11.3212154757       18.8375122303
  C         1.1120831913        9.3888086070       28.9562097915
  C        -1.2863255020        9.2937528451       27.9989179351
  C        -0.8551642730       11.7961175604       30.1298000292
  C        -0.9864617501       13.1556470590       30.2810449924
  H         7.7606686417       14.7613688328       22.3936711721
  H         6.8724236773       13.2881092564       22.3274379823
  C         6.7219463481       14.2781415752       20.4819584581
  S         3.0401633030        5.5165590382       19.6739952863
  N         3.0646081325        6.0775393343       18.1315059497
  C         3.4538772544        8.3184475733       17.1621713050
  H         3.5666492012       10.5246247774       16.6124249527
  H         1.4429996961        8.5567456667       28.3487272492
  H         0.6286503353        8.9026396056       29.8083832316
  C         2.3162042739       10.1691189479       29.4648054197
  H        -1.1657379293        8.4556724325       27.3207839910
  H        -1.5271712999        8.7986700306       28.9751396559
  C        -2.5050678036       10.1086280737       27.4445275960
  H        -1.1193894370       11.0923483750       30.8611265866
  C        -1.3771873395       13.8579573320       31.5033609053
  H         6.1169879447       15.1098887854       20.1200114722
  H         6.0730293059       13.3919377101       20.1932012825
  C         8.0420172789       14.0377864395       19.8713287730
  C         3.6355916241        7.6809136509       15.8524954246
  H         2.7649902407       10.8711375020       28.7326366186
  H         2.0451557426       10.8296978678       30.2640394382
  C         3.3713539587        9.2602118670       30.1332805242
  H        -2.3052513387       10.4622538325       26.4883710543
  H        -2.7849699215       10.8753032589       28.1773056123
  C        -3.6867355029        9.1466242662       27.3274167756
  C        -1.4264539996       15.2560164694       31.7143253657
  C        -1.7915539044       13.0379261211       32.6826750705
  H         8.8404195049       14.6205669995       20.3399897318
  H         8.2959552241       12.9538394604       20.1092836534
  C         8.0740797267       14.2394301052       18.3367436919
  H         3.4931413677        6.6595063476       15.7925846200
  C         3.9000008117        8.1548639954       14.5818373295
  H         3.9794839452        8.7117312323       29.3606864506
  H         2.8875966129        8.5660685462       30.7264084914
  C         4.3995044415        9.9820140264       31.0049242315
  H        -3.4694946209        8.4338092267       26.5384729329
  H        -3.7964386838        8.6212515580       28.2615713589
  C        -5.0237437446        9.8547905128       27.1205862154
  N        -1.0948817985       16.2040483900       30.7620363726
  C        -1.7835634720       15.8131705826       32.9303493017
  C        -2.0944373523       13.6259767052       33.9206092792
  H        -1.8334847134       11.9282090444       32.6058510274
  H         7.0997058887       13.9843252483       17.9821725270
  H         8.4706519899       15.1868824270       17.9720550439
  H         8.6927483720       13.4822786624       17.8919104233
  S         4.2053977108        9.7256050104       14.0697161752
  C         3.8598962485        7.0920027209       13.5763033188
  H         4.3931148885       11.0328010055       30.7467554329
  H         4.1308448564        9.8788467349       32.0791972556
  C         5.7385469476        9.3289157635       30.8302834662
  H        -4.9622932284       10.7549873065       27.7354542801
  H        -5.8164606545        9.2279175044       27.4949453200
  C        -5.2894460083       10.1937112477       25.6886176244
  S        -1.0693172589       17.6545525991       31.4346606692
  N        -1.6741338701       17.2046301786       32.8690534501
  C        -2.0766140328       15.0749478910       34.1070295426
  H        -2.3008642552       12.8709701535       34.6759654988
  C         4.3930671735        9.0268631633       12.4525568781
  N         4.2343821176        7.6734092354       12.3847943107
  O         3.7447202905        5.9194685043       13.7345330478
  H         6.5096316640        9.9230136699       31.3429570048
  H         6.0713375960        9.3768930512       29.7880236893
  C         5.7920501932        7.8941157168       31.3799496172
  H        -4.5726362326       10.8838151657       25.2792833599
  H        -5.2466072330        9.3462841677       25.0467656771
  C        -6.6996536044       10.6705579049       25.5873346583
  C        -2.3643024048       15.7744459525       35.3066101904
  S         4.7824239461        9.9424692225       10.9733855490
  C         4.0631217657        6.9335582702       11.1203336476
  H         5.8392335972        7.8883383451       32.4730150109
  H         4.9043766675        7.3361312469       31.0923462876
  C         7.0540810610        7.1396086097       31.0040341082
  H        -6.7511139659       11.1737744411       24.6516569244
  H        -6.8859248800       11.3162417114       26.4286185271
  C        -7.7282746614        9.5472064617       25.5082624076
  H        -2.2062677614       16.9032808797       35.2588901714
  C        -2.9435922856       15.4468322587       36.4544888757
  H         4.7809743942        7.2078327703       10.3054592931
  H         4.3654998500        5.9847271108       11.2866612586
  C         2.5163179544        6.7773076312       10.7938665449
  H         7.7890375525        7.7057764262       31.6120744286
  H         7.5087060644        7.1700158736       30.0097398756
  C         6.9747686106        5.6620755047       31.2704269695
  H        -7.2600609787        8.6790264468       25.1150588315
  H        -8.1469726422        9.3026735155       26.4813614664
  C        -8.8928256332        9.8221020353       24.6047684794
  S        -3.5457420032       13.8224183011       36.8966617106
  C        -2.9500629297       16.5051540323       37.5108862834
  H         2.0800795932        7.5802495919       10.2493494917
  H         2.2841397928        5.8550726511       10.2344364605
  H         1.8684604547        6.7785321463       11.6248836810
  H         6.8608105163        5.5286860339       32.3520885180
  H         7.8057252872        5.1209832268       30.9081351713
  H         6.1450437381        5.2893887191       30.6395816654
  H        -8.4970025886       10.3499999216       23.7376354918
  H        -9.7293121629       10.3059697272       25.0082691419
  H        -9.1941657648        8.9273128224       24.0811209220
  C        -3.7701383013       14.6373679872       38.4673564535
  N        -3.5755970361       15.9550206652       38.5576474234
  O        -2.6133217635       17.7245356595       37.4245929566
  S        -4.1969917548       13.8218957002       39.9770535290
  C        -3.8431457285       16.7312796212       39.8072025123
  H        -3.9549623832       17.7316404979       39.3815902038
  H        -4.7275979071       16.5367475876       40.4282618407
  C        -2.5302221172       16.6503952677       40.6996599446
  H        -1.7126873936       17.1945804082       40.2355249922
  H        -2.6606636596       17.2109264239       41.5797083688
  H        -2.1897006674       15.5812399794       40.8603064101
