352
i=
  H         4.5412296343        1.4534438991       12.1637510671
  C         3.8754737386        2.2544812722       12.4201663392
  H         4.3621619590        3.1316485990       12.3757082581
  C         2.8906714737        2.4519491373       11.1564652374
  C         3.0903626759        1.9410363907       13.7117012691
  C         3.6763064524        2.6795694592        9.8967667681
  H         2.1820114888        3.2967221698       11.5129318380
  H         2.1827863559        1.5120165600       11.0888158111
  H         2.4008293601        1.1708040167       13.6215332684
  H         2.3809540427        2.6936231502       13.8903459369
  H         3.7415296422        1.7362009005       14.5583420316
  C         4.6526773228        1.5290842841        9.3798505448
  H         3.1432898757        3.3107522503        9.1405558192
  H         4.1666230870        3.6070951061       10.1753912423
  C         5.4729955942        1.6253028199        8.0720510436
  H         4.0323103299        0.6042727765        9.2298564874
  H         5.3790685915        1.3257086059       10.1635822529
  C         6.6987298034        2.6362903166        8.1788933218
  H         4.7774257253        2.0397615868        7.3899818049
  H         5.7854849472        0.6883812603        7.6746553041
  C         7.9742164388        1.9354412916        8.7054086374
  H         6.8480560421        2.9035106270        7.1975844934
  H         6.3251334493        3.4417861504        8.9625889773
  C         9.2225328535        2.9147147723        8.9040413158
  H         8.1795521340        1.2064209500        7.8623708764
  H         7.8806783820        1.3644845355        9.6794384622
  C         8.8302329983        4.2487700250        9.6248501767
  C         9.6586839959        3.6668260500        7.6292566521
  C        10.3099131066        2.2826677261        9.7975979676
  C         8.9547624262        5.3541972918        8.7866662533
  C         8.3276181642        4.5746731340       10.8816933767
  C         9.4748925290        5.0175780033        7.5485451354
  C        10.0505190650        3.0604064491        6.4838889688
  H         9.8068641103        2.1120570229       10.7342252325
  H        10.5475601042        1.2562618744        9.3766308732
  C        11.5370367785        3.1222731403        9.8997313521
  S         8.5612670361        6.8873801967        9.5789628095
  C         8.0709098525        5.9575611771       10.9426241119
  H         8.0952130928        3.8944069614       11.6184710291
  C         9.8400236818        5.6885175717        6.4075827338
  H        10.2331955220        1.9598142039        6.5562068491
  C        10.3887934823        3.7092082897        5.3503696924
  H        11.1644157553        4.1176977275       10.2133490268
  H        11.8312623103        3.4244049355        9.0271756698
  C        12.5628874678        2.5693441975       10.8353913540
  C         7.4691745795        6.5746019304       12.1837381161
  C        10.2539871092        5.0453772581        5.2774449173
  H         9.8252783840        6.7912709453        6.4428635947
  C        10.7945394711        3.2732460574        4.1367377719
  H        13.3431712463        3.2763039574       10.7695768058
  H        13.0100714739        1.7108216718       10.4805599089
  C        12.0965847444        2.2650056767       12.3007434066
  C         7.4822924003        7.9274980347       12.5231496566
  C         6.9195538838        5.6701484790       13.2346948406
  C        10.6623402904        5.6495569923        4.0502078539
  C        10.9060590013        4.3959278153        3.3309866369
  S        11.0964336555        1.8034960831        3.3711738807
  H        11.4661124771        3.1716502768       12.5460091823
  H        11.2580114408        1.6879728239       12.3838442161
  C        13.2019782447        1.8802600867       13.2498456127
  N         7.8005553685        8.9616047377       11.6363081717
  C         7.1910214645        8.3945955640       13.8036095019
  C         6.6492103438        6.0674506045       14.5193853638
  H         6.7722657129        4.5851825137       13.0327824353
  C        11.8899332584        6.6120315054        4.1559417245
  C         9.6141780450        6.5052645996        3.3116692664
  C        11.2494016455        3.9616123236        2.0357112641
  C        11.3035747480        2.5780340496        1.9330278300
  H        13.8220879198        2.6942098910       13.3490090000
  H        13.8031746489        1.0104449135       12.9576962466
  C        12.6057480378        1.5632800962       14.6507585696
  S         7.8785923922       10.4065306969       12.5438304640
  N         7.3101648903        9.7425400749       13.9286376863
  C         6.8408014446        7.4921516414       14.9421238153
  H         6.4051340518        5.3308926109       15.3266027565
  H        11.7652129024        7.3554964351        4.7886593544
  H        12.1700881122        7.1260305580        3.2051892477
  C        13.1723398368        5.9092814672        4.6455576126
  H         9.0872601607        7.2365756347        3.9190352715
  H        10.0272075033        7.1618005768        2.6221160964
  C         8.5700172227        5.6373213264        2.5631929906
  H        11.3789035673        4.7330364504        1.2507859359
  C        11.6214309784        1.8807479125        0.6460784022
  H        11.8629987034        2.3371748077       14.7338349620
  H        12.2009308130        0.5768210022       14.5487710578
  C        13.6488425120        1.7468191892       15.7682204628
  C         6.6445817482        8.0924828232       16.1830297381
  H        13.0042688535        5.1923155512        5.5281756393
  H        13.4495342355        5.2688082176        3.8794487167
  C        14.4000655333        6.8380875673        4.8826389405
  H         8.4174337032        4.8385867758        3.2457017368
  H         8.9778558739        5.2703271056        1.5941841570
  C         7.2748715494        6.5306100129        2.3855577117
  C        11.7269613327        0.4233405821        0.5352515947
  C        11.9451459591        2.6146597188       -0.6663887670
  H        14.5193723506        2.2921497479       15.3943143714
  H        14.0248458329        0.7263498667       16.0786711320
  C        12.9740978093        2.3414224007       17.0504632322
  H         6.7640651407        9.1186661971       16.1981278378
  C         6.2628929396        7.5663510599       17.4100655980
  H        14.2658795072        7.5259512404        5.6406719990
  H        14.7122519457        7.4531909414        4.0146218468
  C        15.6668811750        6.0760687112        5.1119507690
  H         6.6881296637        6.4130388386        3.2932949531
  H         7.5125254928        7.5213761412        2.3376708453
  C         6.3687673898        5.9385887847        1.2802273923
  N        11.5096324614       -0.4700284854        1.5400602573
  C        12.1086399395       -0.0836797090       -0.6634495469
  C        12.2833224172        2.0522026854       -1.8597798235
  H        11.7381782212        3.7458697868       -0.5515207615
  H        12.3346671988        1.5897118255       17.4597384426
  H        12.3911324533        3.1036542493       16.7627805059
  H        13.8058196031        2.6647687127       17.6760156268
  S         5.9840713732        5.9198057896       17.9494644682
  C         6.1685564274        8.5445044039       18.5074096847
  H        15.5205199261        5.0962407015        4.5999761602
  H        16.5045766400        6.5347537668        4.7257720067
  C        15.8676077207        6.0510840283        6.6000749831
  H         6.1429026047        4.9538979756        1.7441138998
  H         6.9639795713        5.9023438017        0.3201847532
  C         4.9299746614        6.6367076000        1.1246507747
  S        11.5915348158       -2.0135793511        0.9419681360
  N        12.1109608478       -1.5266221742       -0.5273508386
  C        12.3856209136        0.5359825436       -1.8696257948
  H        12.3200232528        2.6309418321       -2.7490706993
  C         5.8697555005        6.6320226963       19.5507600402
  N         6.0825868781        7.8973687132       19.7111334877
  O         6.4699392402        9.7713624229       18.4286780820
  H        15.8525005779        7.1265814954        6.9495608183
  H        14.9613379212        5.6432298419        7.0170439371
  C        17.1364606005        5.2327795425        6.8960920738
  H         4.6379725593        6.3285015223        0.1796188134
  H         4.2367649842        6.1907265535        1.8345223174
  C         4.9539986500        8.1145796658        1.3528024206
  C        12.7924911853       -0.3825731237       -3.0294120029
  S         5.5589994899        5.6401369395       20.9502497860
  C         6.0824899710        8.7044679078       20.9197771405
  H        17.1495151162        4.7025103428        7.8590411064
  H        17.0700781106        4.4850054892        6.0441226476
  C        18.3796306581        6.0696283405        7.1373098070
  H         5.7978103769        8.6857827008        1.0561023585
  H         4.9619794991        8.1817596353        2.3791133282
  C         3.8164673543        8.8753028731        0.7477421949
  H        12.4276789419       -1.3494414484       -2.8692016554
  C        13.3033820694       -0.0136088561       -4.2206287581
  H         5.4473014420        8.1004954375       21.5579153854
  H         5.6944963142        9.7050089996       20.8304284021
  C         7.5018091478        8.6239023934       21.5526399280
  H        19.0587907103        5.6141276989        7.8171104590
  H        17.9911311891        7.0882547589        7.3975548570
  C        19.1748903194        6.4359865982        5.8814216120
  H         3.7818779559        8.7617961719       -0.3295961371
  H         2.8560091697        8.5238378082        1.2174287232
  C         4.0030383722       10.3540416133        1.1120779328
  S        13.9610868037        1.5180495159       -4.6630024529
  C        13.6362659972       -1.0767719154       -5.2298305262
  H         7.8337411858        9.6312900274       21.7773884268
  H         8.1797865458        8.1992087371       20.8960322114
  H         7.4124129069        8.1790650411       22.6291506094
  H        18.7033474222        7.2584910516        5.3122847802
  H        20.1563898284        6.6159425597        6.0998167842
  H        19.1748267256        5.5170984948        5.3214269680
  H         3.4425261299       10.6510147277        1.9744892469
  H         5.0136291555       10.6411214937        1.3452052361
  H         3.6920807000       11.0289273822        0.3045132847
  C        14.5572032424        0.8425222782       -6.1223425579
  N        14.2277661215       -0.5657791019       -6.3466275696
  O        13.3128623829       -2.2470608724       -5.1279306669
  S        15.1307963923        1.6815255288       -7.5801394374
  C        14.3207290921       -1.3146585033       -7.5449178680
  H        14.5038495650       -2.3473552195       -7.0924097716
  H        15.1077837156       -1.0342408580       -8.2258549053
  C        12.9623042047       -1.5026575231       -8.2668300350
  H        12.3272524635       -2.1627302007       -7.5116610367
  H        12.8261852892       -1.7692650585       -9.3461666572
  H        12.4687299143       -0.4510617217       -8.4396049693
  H        -4.0977840779       14.2443353664       16.2332573432
  C        -3.3289034979       13.4555910755       16.1630893374
  H        -3.9347162805       12.6095930646       16.4138802795
  C        -2.2829580823       13.6428488328       17.2946584819
  C        -2.7684701121       13.2306055572       14.8403385990
  C        -2.9917143215       13.8643088264       18.6204888507
  H        -1.5551130427       12.8246988255       17.5789132340
  H        -1.8163223752       14.5815249730       17.0039393896
  H        -3.3998804422       13.7160322196       14.1459610721
  H        -1.8609555193       13.6429654210       14.6709052897
  H        -2.6936750950       12.2028849987       14.4645362349
  C        -1.9831334577       13.9350992911       19.7178234487
  H        -3.5513588302       12.8259488384       18.7675110010
  H        -3.7111976288       14.7546118352       18.5895565774
  C        -2.4699235977       13.6894454171       21.1863175512
  H        -1.0726034095       13.3840084071       19.6066527340
  H        -1.6561463551       14.9694874015       19.8782879804
  C        -1.3610747413       12.8551284236       21.8646462497
  H        -3.4104685269       13.2792576218       21.0947577045
  H        -2.5043024749       14.6297109470       21.5873464640
  C        -0.1197117930       13.7285701918       22.2930245211
  H        -1.6173291171       12.1780184766       22.6640930067
  H        -0.9051811080       12.0333399321       21.3781918300
  C         0.8816611501       12.9382942077       23.1837467190
  H         0.4320435767       14.0814237923       21.3864513215
  H        -0.3320846016       14.6627338861       22.7517901064
  C         1.1484828895       11.5903217258       22.4288144035
  C         0.4685574430       12.2943767225       24.4412921342
  C         2.1764217806       13.7134940859       23.3159623708
  C         0.9791426313       10.5251493995       23.3034995982
  C         1.6658666841       11.1816176680       21.1709119793
  C         0.5056772700       10.9452251856       24.5605672695
  C         0.0383533877       12.8619013369       25.6483165437
  H         2.4838973187       14.1154778825       22.3792769928
  H         2.0990380360       14.4696671246       24.0310692787
  C         3.3499213182       12.8712753020       23.7379149380
  S         1.4350687383        8.9705766884       22.6260489047
  C         1.8592509580        9.7717592798       21.2153620802
  H         1.8582569814       11.9019787743       20.3959703122
  C         0.2761595678       10.2865294287       25.6912190058
  H        -0.1944974768       13.9040230875       25.7696820461
  C        -0.1792620901       12.2378445501       26.7567769461
  H         3.6817832451       11.9443369626       23.1634455153
  H         3.1759517208       12.3199468442       24.7080484699
  C         4.6741334261       13.6977047620       23.8841508379
  C         2.4684112725        9.0675404066       20.0741545311
  C        -0.0787467739       10.8608515868       26.8282654381
  H         0.3744759875        9.1994923937       25.5743686603
  C        -0.5037610616       12.7272858007       28.0384540345
  H         5.5056278618       13.3237292135       24.4127724259
  H         4.4096941168       14.6720240429       24.1317701368
  C         5.2977733249       13.7043103590       22.4390144645
  C         2.4434742092        7.5894853226       19.7732148350
  C         2.9675849046        9.8778365613       18.9478201643
  C        -0.4444799581       10.1868336086       28.1419960007
  C        -0.7179206489       11.5823969189       28.8274884791
  S        -0.8748997632       14.1990052054       28.7567743981
  H         5.9625093085       14.4661877993       22.4663351168
  H         4.4985823738       13.8817548401       21.7444357478
  C         6.1183110027       12.3553598903       21.9982140512
  N         2.0519855276        6.6967412348       20.7494621063
  C         2.7583383484        7.0519500048       18.5348589150
  C         3.2505891323        9.3144588062       17.6597449857
  H         3.2633168536       10.9567272308       19.1314535796
  C         0.8438235498        9.3813462240       28.7674887494
  C        -1.8323393759        9.3811605474       28.0445858465
  C        -1.0630448307       12.0166297733       30.1512351079
  C        -1.1657743599       13.3493930593       30.1784043488
  H         6.8032292302       12.1264768097       22.7356178532
  H         5.4745850209       11.6076619122       21.6773982138
  C         6.8770201900       12.6593668463       20.6621823991
  S         2.2205323016        5.1847499449       20.0555410090
  N         2.5790296157        5.6710041050       18.5904256628
  C         3.0811928927        7.8870895710       17.4017484684
  H         3.8117249657       10.0232150250       17.0335665686
  H         1.1750221233        8.5917786588       28.0795761338
  H         0.3823846018        8.8412283927       29.4974916635
  C         1.8359109670       10.3332353633       29.4182760112
  H        -1.6042801923        8.3649444945       27.6350142534
  H        -2.1529191413        9.1014975970       29.0256428115
  C        -2.8689581957       10.1313985485       27.2377566359
  H        -1.0824564397       11.2003997201       31.0594638043
  C        -1.4987171855       14.0130485039       31.5190806459
  H         7.5831902278       11.9611211057       20.2817953438
  H         7.5780975745       13.6088264742       20.7636005642
  C         6.0029702410       12.9550928319       19.4489712562
  C         3.1359567156        7.1979496552       16.1133845013
  H         2.1045772770       11.2599810775       28.9714797170
  H         1.4646158328       10.6968358877       30.3349583120
  C         3.1477439602        9.6694778467       29.6819901842
  H        -2.5707028973       10.4071878472       26.2119861127
  H        -3.2648013029       10.9789279325       27.8095415939
  C        -4.1820808413        9.2252693601       27.0155354503
  C        -1.6558926843       15.4450502684       31.6399563899
  C        -1.8600141851       13.3044231267       32.7567133050
  H         5.2481228566       12.3083201872       19.1659982658
  H         5.4313369472       13.8811817104       19.7088258648
  C         6.9090615873       13.2994797946       18.2523613718
  H         3.0512392030        6.1763707410       16.0743620673
  C         3.5340525290        7.6199238115       14.9587886096
  H         3.7190862978        9.5591228304       28.7845081595
  H         3.0116868667        8.7121563073       29.9247549677
  C         3.9392597590       10.3758994095       30.8764816560
  H        -3.9947447554        8.5301296613       26.1776373822
  H        -4.5711366147        8.7492518602       27.8720211512
  C        -5.2299031170       10.1044803114       26.3610809901
  N        -1.2698851301       16.3085619796       30.6778475966
  C        -1.9347071800       16.1421902885       32.8274179433
  C        -2.1765165166       13.9997055751       33.9434512015
  H        -1.8224680926       12.2436908735       32.7624527048
  H         6.6258197605       14.2218774581       17.6870027955
  H         7.9870657465       13.4455597269       18.4131329909
  H         6.9735873106       12.2847124503       17.6929743489
  S         3.7098820302        9.3023914957       14.6667808662
  C         3.5584404703        6.7111468175       13.7559782142
  H         3.9757717704       11.4874878238       30.6609046584
  H         3.2532748924       10.2887667078       31.7433917765
  C         5.2940536386        9.8642538823       31.1396616912
  H        -4.9513502205       10.7367434288       25.4771234733
  H        -5.8916345674       10.7294576593       27.0778305748
  C        -6.3711591411        9.2189095725       25.6881832006
  S        -1.5009852670       17.9075905298       31.1263782373
  N        -1.9582692191       17.5158855635       32.6508463933
  C        -2.0670148037       15.4911652587       34.0610245604
  H        -2.2867104867       13.4629338377       34.8285422210
  C         4.0081930239        8.6997442490       12.9187479329
  N         3.9313338773        7.3317682889       12.6934115428
  O         3.3467791826        5.5094766510       13.6796879690
  H         5.8557279978       10.5677494654       31.8534341533
  H         5.9063724523        9.7151730562       30.2924070464
  C         5.2241596994        8.4377500745       31.7342847879
  H        -5.8356322204        8.4636612668       24.9604616963
  H        -6.7321940640        8.4920552628       26.4792499467
  C        -7.5093836377        9.9658944542       24.9835938778
  C        -2.4154542755       16.3361909378       35.1788915625
  S         4.6216417365        9.6899378170       11.6464158801
  C         3.9498272193        6.6791625929       11.3873298052
  H         5.6802687978        8.7795599000       32.5770438629
  H         4.2460613458        8.1248288010       31.9973737260
  C         5.9810068754        7.3715338235       30.9746384760
  H        -7.5675562019        9.5201451439       23.9352343711
  H        -7.0862087724       11.0041681947       24.9116252452
  C        -8.8819638105        9.8203346329       25.6129157417
  H        -1.9125174172       17.3265349648       35.1308926620
  C        -2.9921217428       16.0459348294       36.3392894503
  H         4.5493571610        7.3060565901       10.7634362054
  H         4.4078544538        5.7372089961       11.3332750519
  C         2.5735310544        6.7673824529       10.7335521120
  H         6.8127631912        7.8620567457       30.5183159496
  H         5.5195193229        7.0314373849       30.0254825402
  C         6.3378060965        6.1337872170       31.7997221608
  H        -9.7215579809        9.8834268170       24.9733380259
  H        -9.0041590380        8.8910763807       25.9589386616
  C        -9.0987606745       10.7960127866       26.7506568514
  S        -3.7725138388       14.5971182239       36.7582657913
  C        -3.0170423833       17.1008464274       37.3615062598
  H         2.2557051627        7.8653957827       10.3823278480
  H         2.7660905840        6.3479551462        9.7287874248
  H         1.8497245268        6.0899240116       11.2891540287
  H         5.4919500472        5.8082885175       32.3417239015
  H         7.1922170099        6.1933168091       32.4192521534
  H         6.6167983783        5.3897555542       31.0919060065
  H        -8.3596203039       10.8516236422       27.4068077024
  H        -9.9979932135       10.6226277412       27.3273487410
  H        -9.1588600054       11.8100043657       26.3545551687
  C        -4.0678482462       15.3367318673       38.2965480856
  N        -3.6805264027       16.6011682276       38.4248261345
  O        -2.4506901900       18.1972193146       37.2624484738
  S        -4.7263527894       14.6343268604       39.8185271064
  C        -3.8401058608       17.4484008303       39.6250548475
  H        -3.8285274946       18.5034274581       39.4395775857
  H        -4.8599370071       17.2743156389       39.9743886914
  C        -2.7688634255       17.2297954512       40.6533166449
  H        -2.1793520182       16.3937318509       40.3853061272
  H        -2.3184359184       18.1826052208       40.9353840171
  H        -3.1441478027       16.8108139482       41.4784782740
