352
i=
  H         5.2664063994        1.9181617594       13.1784599096
  C         4.4955211312        2.6625514968       13.1175296954
  H         5.0599542964        3.5603131806       13.2862858280
  C         3.8341327694        2.6369717179       11.7386657771
  C         3.5184301847        2.4392118875       14.2944061978
  C         4.8341783614        2.6345814666       10.6032078088
  H         3.2123505849        3.5676691347       11.5794238449
  H         3.2107945513        1.7859638096       11.6235905461
  H         2.8547671698        3.3109985549       14.3225831114
  H         3.8950773092        2.2628769141       15.3026919078
  H         2.7854359263        1.6033154455       14.1897986786
  C         5.1814516373        1.2952095920       10.0861295681
  H         4.3769678291        3.2390130455        9.7310757092
  H         5.8067874828        3.0759293077       10.8868955542
  C         5.9450907156        1.3721922570        8.7254219850
  H         4.2481707230        0.7335096430        9.9134292899
  H         5.7611310816        0.7515169810       10.8348835213
  C         7.2209522672        2.2762116304        8.7379626677
  H         5.2735036664        1.7393940850        7.9668657524
  H         6.3036908283        0.4513306873        8.2880511286
  C         8.2705542607        1.6890514850        9.5479596239
  H         7.6017823721        2.4295277255        7.7338939017
  H         6.9790128214        3.2523006733        9.0355836452
  C         9.4656594106        2.6177093851        9.6561448468
  H         8.4949641203        0.8098661635        8.9354818717
  H         7.8698003722        1.4566947796       10.5113651429
  C         9.0765987332        3.9522497836       10.3987733003
  C         9.7897055024        3.2829372705        8.4077021928
  C        10.7194621774        1.9965576846       10.3671830666
  C         9.2591952196        5.0244625990        9.5452037959
  C         8.7033775651        4.3787238222       11.6807247539
  C         9.6809198136        4.6137782553        8.2692898261
  C        10.3064540101        2.6697368950        7.2447146016
  H        10.4834019305        1.6457795222       11.3570918782
  H        11.1305425570        1.2045596897        9.7552167753
  C        11.8375709694        2.9716892573       10.6265255584
  S         8.8193520811        6.5608173483       10.2664448994
  C         8.4805433877        5.6867646045       11.7231861675
  H         8.7048029104        3.6780628503       12.4845007313
  C         9.9986003977        5.2301888090        7.1099162902
  H        10.3613541036        1.5716782703        7.2350368438
  C        10.5769828521        3.2867243525        6.0520075683
  H        11.5589668615        3.8003599664       11.2815912552
  H        12.1734008706        3.3826617681        9.6919534481
  C        13.1028808983        2.2499350738       11.1911982033
  C         7.8897400405        6.4071583494       12.8773673407
  C        10.4807095599        4.6535948857        5.9094271890
  H        10.0360034693        6.2982744926        7.0193571576
  C        10.9520925839        2.8894523404        4.7616251387
  H        13.9024658302        3.0143984508       11.1213273788
  H        13.3379608187        1.3625566604       10.5532625799
  C        13.0415440273        1.8120007224       12.6628449435
  C         7.8388468863        7.7974058316       13.1005150338
  C         7.3908072665        5.4919239110       14.0283231465
  C        10.9495897697        5.3223135335        4.6721679567
  C        11.2394971185        4.0082583473        3.9581768079
  S        11.1476878604        1.3888381722        4.0051762593
  H        12.2887400078        1.1138892622       12.9853123870
  H        13.9725463864        1.2675733682       12.9431004477
  C        13.0865103363        3.0302290213       13.5086541962
  N         8.2301483507        8.7866904927       12.2415656348
  C         7.4226421244        8.3498702267       14.2819887216
  C         7.1067469098        6.1025311873       15.2571946717
  H         7.3832374144        4.4042096472       13.9546950837
  C        12.3052673873        6.0651515072        4.8159384754
  C         9.8106525492        6.1584512050        4.0015286534
  C        11.7729458874        3.5599631328        2.7307087987
  C        11.6989202982        2.2098032431        2.5426755966
  H        13.1914915668        3.8778832727       12.8598102050
  H        14.0081815938        2.9269728307       14.1084646340
  C        11.9345010125        3.1076126278       14.5413741339
  S         8.1372607974       10.2727369734       12.9106455751
  N         7.6630546872        9.7381977672       14.3988073871
  C         7.1099121788        7.5545513833       15.4063340672
  H         6.9664329075        5.4223283092       16.1352624760
  H        12.0461626401        6.9979390104        5.1986824126
  H        12.8556824554        6.3869099557        3.9410810099
  C        13.3904095177        5.3534733561        5.6693561107
  H         9.5458200452        6.9603157428        4.7193419383
  H        10.1759587064        6.6379672044        3.1016421791
  C         8.5770355734        5.2816354831        3.7658362424
  H        11.9106148514        4.3510858727        1.9803904795
  C        11.9647416635        1.3858188790        1.3097599122
  H        12.1957084265        4.0869720898       15.0047057642
  H        11.0262861351        3.1999398077       13.9432047414
  C        11.8732490574        2.0614325062       15.6670674296
  C         6.9639840998        8.1679193734       16.7056519212
  H        13.0313942657        5.1929084281        6.6331784377
  H        13.4899296021        4.4187366974        5.2292522643
  C        14.7130462527        6.1120678106        5.6596228477
  H         8.1854238405        4.8855325582        4.7085446413
  H         8.8040564519        4.3259190227        3.2929377298
  C         7.5167262311        6.0047027659        3.0744909725
  C        12.1738127428        0.0256273746        1.2021429192
  C        12.2217591824        2.1649488178        0.0827764787
  H        12.0009523485        0.9599957951       15.4037467837
  H        10.8617797754        2.1722607551       15.9522701254
  C        12.7909893618        2.5580613783       16.8239924814
  H         7.1612505935        9.2372709205       16.6618942037
  C         6.5647374790        7.8221998862       18.0009838824
  H        14.3782072441        7.0268871046        6.1868441005
  H        15.1118099098        6.4817671877        4.7113408253
  C        15.6973450573        5.3726585471        6.4509134376
  H         7.0412802353        6.5559175281        3.8833959804
  H         7.9490111135        6.7249597197        2.3808044268
  C         6.4303323991        5.1291953835        2.4134260745
  N        12.0845396062       -0.8590208731        2.3112579272
  C        12.3723197578       -0.6282684023        0.0053041470
  C        12.4105798220        1.5371427488       -1.1674400838
  H        12.1594673668        3.2816818270        0.2074155147
  H        12.1511099337        3.3532435077       17.1932509745
  H        13.8184503634        2.9664537015       16.7602482524
  H        12.8144676028        1.7377805859       17.5617419067
  S         6.2460658305        6.2527930187       18.6421316461
  C         6.4827607016        8.9895058825       18.9536913415
  H        15.2669946921        5.1664569012        7.4272602706
  H        15.8829876153        4.4881704965        5.8828349016
  C        16.9366043696        6.1421699870        6.7897191028
  H         6.2737817905        4.3390282919        3.0938432027
  H         6.7054646880        4.8580641430        1.3713555251
  C         5.1227938670        5.9626106460        2.2891570497
  S        12.2186663203       -2.3553020615        1.7066393686
  N        12.3660269096       -1.9985768914        0.1753402653
  C        12.5399834169        0.0404445977       -1.2183417969
  H        12.5971393987        2.1246741174       -2.0312573335
  C         6.0202001565        7.1515010055       20.2179821239
  N         6.1721439504        8.4724097696       20.1326791434
  O         6.7165446191       10.1378018150       18.6570727561
  H        17.4257982130        6.5649918571        5.9030553341
  H        16.6598339002        7.0205385122        7.4432367075
  C        17.8965638429        5.2810068379        7.4802931661
  H         4.3491312020        5.2582944063        2.1462546454
  H         4.9298976396        6.4429113844        3.2214639938
  C         5.2158715724        6.9201926677        1.1188444676
  C        13.0002377823       -0.7434382832       -2.3587234927
  S         5.7040769324        6.5065377020       21.7880426151
  C         6.1346075592        9.3651718240       21.2482749029
  H        17.6585116524        5.0808355979        8.5172221560
  H        17.9840468343        4.3661561504        6.9174613974
  C        19.3342862752        5.8276141958        7.6695767342
  H         5.1735982721        6.4821074666        0.1049849817
  H         6.3324355874        7.2176716312        1.1468099560
  C         4.3646202995        8.1691543518        1.0853216648
  H        12.9479194520       -1.8050431489       -2.2884579970
  C        13.3444631675       -0.3145633305       -3.6140322959
  H         5.3659840257        9.0578475032       21.9651554028
  H         5.9280693809       10.3688259125       20.8974340028
  C         7.5187581762        9.4853978488       21.9418309215
  H        20.0000736642        5.1211816817        8.1285729049
  H        19.2714025942        6.7095425148        8.2826878233
  C        20.0062265079        6.0227533398        6.3138617696
  H         4.2198121980        8.4135643424        0.0296183941
  H         3.4142877153        7.9585292103        1.5170217673
  C         5.1161326919        9.3335002522        1.7186721361
  S        13.9339597351        1.2440588935       -4.0493970314
  C        13.5669294978       -1.4043406611       -4.6268187239
  H         7.9230051985        8.5574542799       22.1091568627
  H         7.4667284897       10.0576598861       22.8653846829
  H         8.0671273036       10.1309714928       21.2328066306
  H        19.7012048148        6.9828783059        5.8822078141
  H        21.1043698104        5.9874578440        6.3773898700
  H        19.6851639023        5.2004763498        5.6009609434
  H         6.0228009051        9.0177683827        2.2088843842
  H         5.4260812215       10.0842929946        0.9799672939
  H         4.3960367405        9.8642665922        2.3713014551
  C        14.2167342608        0.5100047828       -5.6029140972
  N        14.2111613398       -0.8573779220       -5.6798350933
  O        13.2700365555       -2.5838001908       -4.3860220927
  S        14.9191157905        1.3428331555       -6.9723040920
  C        14.4800703414       -1.7183285338       -6.8205228718
  H        14.8719994727       -2.6895738206       -6.4904045184
  H        15.3835029607       -1.3655873711       -7.3020384571
  C        13.2766162261       -1.8981292641       -7.8172870704
  H        13.2908537217       -2.9038710534       -8.2297921521
  H        13.3908943625       -1.2792364405       -8.7596427441
  H        12.3378485457       -1.6175173899       -7.3029712290
  H        -3.0492136042       14.9216053925       16.2807137097
  C        -2.6069111320       13.9494886906       16.5153364161
  H        -3.3432492536       13.3910574853       16.9043771959
  C        -1.3898057383       14.1789531472       17.4754632230
  C        -2.1270688795       13.4038671281       15.1847653178
  C        -1.7864246327       14.5867826483       18.8584889426
  H        -0.8957007446       13.1997591742       17.5861364038
  H        -0.6727259012       14.9626630401       17.1353330150
  H        -1.4414329929       14.2219409139       14.7851559223
  H        -1.5089401560       12.5102050340       15.2545792399
  H        -2.9095563425       13.1997294497       14.4191650227
  C        -1.8460965184       13.3331741736       19.7618617881
  H        -2.6900035791       15.0802921213       18.9118077466
  H        -1.0056583978       15.2374126396       19.1542590852
  C        -2.1858166175       13.7426463495       21.1846953057
  H        -2.5133251113       12.5599521542       19.4579977027
  H        -0.8845314489       12.8535608812       19.6924669750
  C        -1.1489091330       13.2589451266       22.1746086390
  H        -3.1485833563       13.3964106784       21.4623970105
  H        -2.2543213960       14.8307563345       21.2840365683
  C         0.2278510213       13.9661545906       22.2779306567
  H        -1.6186066579       13.1107512474       23.1505172792
  H        -0.9943661963       12.1770140058       21.9296723008
  C         1.2815723413       13.1671703133       23.1357965600
  H         0.5356151017       14.2216516421       21.2978328015
  H         0.0828348835       14.7932115111       22.8354705460
  C         1.6074322307       11.8225283322       22.4977972199
  C         0.7937649540       12.5614969349       24.3738178057
  C         2.5030128706       14.0434610266       23.3181724408
  C         1.2395182297       10.7348721184       23.3044736862
  C         2.2859313384       11.4102292044       21.3817407385
  C         0.7538875998       11.2248175817       24.4748419263
  C         0.4886470172       13.1706619119       25.5544531669
  H         2.6769607759       14.4794897735       22.3323543564
  H         2.2449131527       14.8199638112       24.0122846628
  C         3.7520493688       13.3823314727       23.8343920753
  S         1.6326549670        9.2038769620       22.6077247432
  C         2.2240790363       10.0486998240       21.1651853950
  H         2.6240788068       12.1603963298       20.6671010884
  C         0.2877197450       10.5978780029       25.6144237916
  H         0.5933507863       14.2610094059       25.6524768552
  C         0.0547912631       12.5405572348       26.6806816566
  H         4.0933891440       12.4925937097       23.3300745776
  H         3.4605520704       13.0086593272       24.8157018631
  C         4.8257493834       14.4544290839       24.0356175028
  C         2.7879884194        9.3512798052       19.9101774325
  C        -0.0012505466       11.2304357309       26.8270192192
  H         0.3733849976        9.5772143500       25.6419388749
  C        -0.4531455942       12.9639677524       27.8729520153
  H         5.5975578332       14.0267564196       24.6809252202
  H         4.4288606252       15.3878956525       24.4551690513
  C         5.6242924546       14.9165537155       22.7857671269
  C         2.7528415261        7.9457363767       19.6832784053
  C         3.0787418980       10.1983925930       18.7164313635
  C        -0.4543905710       10.5062173966       28.0637184371
  C        -0.7218049650       11.8748085571       28.7039272579
  S        -0.7308496591       14.5182876012       28.6418725753
  H         6.1987098885       15.7772834335       23.0039734465
  H         4.7806059748       15.3325895230       22.1545643676
  C         6.5616027935       13.8947303209       22.2285003552
  N         2.5255648664        6.9930366373       20.6654895869
  C         3.0048286651        7.3492385117       18.4405726445
  C         3.5057169240        9.5554574452       17.5154545838
  H         3.2319443601       11.2495920615       18.9412026591
  C         0.6931145937        9.7800377951       28.8122386455
  C        -1.7270518923        9.6490678502       27.8075296400
  C        -1.2970087407       12.3075167169       29.9519098257
  C        -1.2091987707       13.6714600031       30.0693157919
  H         7.6282107464       14.0841476078       22.3801270463
  H         6.4050317874       12.9715563002       22.7916179092
  C         6.3303484509       13.7853300559       20.7523208153
  S         2.7447836921        5.5361252239       20.0570644616
  N         2.9045484884        5.9898748331       18.5135591465
  C         3.3751549206        8.1027615666       17.3168089107
  H         3.8576575849       10.3064215545       16.7941985687
  H         1.1356020907        9.0767658385       28.1071320156
  H         0.2721248268        9.1104846896       29.5285586903
  C         1.7433326440       10.6540861099       29.4788250488
  H        -1.4434905190        8.8045891259       27.2374503249
  H        -2.1255730290        9.2738451812       28.7437161772
  C        -2.8923443128       10.4653242037       27.2458653100
  H        -1.6934828465       11.5522716320       30.5440752629
  C        -1.5335543099       14.4260207652       31.3345380259
  H         5.8765775049       14.6940665257       20.4469128213
  H         5.6049196833       13.0355973349       20.5812102057
  C         7.6124093749       13.4873417035       20.0516457183
  C         3.5840702157        7.4354922430       16.0262294450
  H         2.2504072567       11.3146690458       28.7861849356
  H         1.3086952886       11.2680178156       30.2221491521
  C         2.7308398373        9.7292312048       30.1514819023
  H        -2.7005050968       10.4742833483       26.1762522470
  H        -3.0287711008       11.5182971030       27.6037461713
  C        -4.2745427936        9.7655809319       27.3954819676
  C        -1.6055319272       15.8134961485       31.4977537088
  C        -1.9413281799       13.6494265640       32.5246296801
  H         8.3308018168       14.2917003060       20.2642580797
  H         7.9818950773       12.5068095113       20.4122904672
  C         7.4350804972       13.3652623856       18.5933148384
  H         3.4179221293        6.3780270866       16.0825087429
  C         3.9238587123        7.8787638583       14.7663270371
  H         2.9076377160        8.8036044179       29.5402705809
  H         2.3313361931        9.3521850608       31.0601199239
  C         4.0054227715       10.4224573248       30.6606735784
  H        -4.1613832703        8.9020658280       26.7851925558
  H        -4.4303969439        9.4458379955       28.4139906652
  C        -5.2619213651       10.6502116563       26.7566707646
  N        -1.4406275436       16.7317433872       30.4802710414
  C        -2.0244654898       16.3506507479       32.6819159514
  C        -2.3226976430       14.2378835225       33.6728697993
  H        -2.0825413117       12.5531366954       32.3771771695
  H         6.4775467468       13.0571189851       18.3990439443
  H         7.6323477672       14.3080607883       18.0811658087
  H         8.0754375551       12.6002600212       18.1734168571
  S         4.2033015200        9.4702702219       14.2204592826
  C         3.9345811855        6.8464881499       13.6421623575
  H         4.0834760137       11.4238914817       30.2019720536
  H         3.9422072669       10.6536743355       31.7435934168
  C         5.3260678276        9.6685966959       30.2326791385
  H        -4.8019686627       11.2025660546       25.8906583432
  H        -5.7497048790       11.4093206741       27.3321683420
  C        -6.3180839558        9.7733361305       26.1454928468
  S        -1.6796783965       18.1872041103       31.1365313411
  N        -2.0076119268       17.7851686356       32.6370824827
  C        -2.2569956934       15.6704069940       33.9039720380
  H        -2.5826950901       13.5278115348       34.5119479627
  C         4.2774844440        8.8162256219       12.5635110635
  N         4.1168371357        7.4633003369       12.4243392653
  O         3.7498360676        5.6436468683       13.8196009212
  H         6.2434719197       10.2240270412       30.6079482906
  H         5.3131936896        9.5046976177       29.1935738017
  C         5.4758059489        8.3313894308       30.9615922678
  H        -5.8808004363        9.1440737002       25.4730770826
  H        -6.8133388937        9.2338584589       26.9139447155
  C        -7.3512988807       10.7407455865       25.4171427027
  C        -2.5218442351       16.4510532006       35.0856486930
  S         4.6305831252        9.7104301940       11.0704439651
  C         4.1261422837        6.5636747590       11.2220303814
  H         5.9361512247        8.4572740615       31.9425693489
  H         4.3989316572        7.9754701096       31.0298940815
  C         6.2245732887        7.3579248538       30.0909148286
  H        -6.8347606791       11.3037168763       24.6834365431
  H        -7.8255846013       11.5620183451       26.0154288428
  C        -8.5107478545       10.0457216515       24.6721823045
  H        -2.2057028544       17.4651335733       35.0600927021
  C        -3.0223476994       16.1425288330       36.2943734166
  H         4.9083348902        6.9427643812       10.5124560679
  H         4.4340752615        5.4896684399       11.4419908645
  C         2.7763165819        6.6350227606       10.5360800343
  H         6.8942492547        7.8108802910       29.2941133301
  H         5.4077724185        6.8727164784       29.5800469625
  C         7.1668568176        6.5748030995       30.8543129176
  H        -8.9217785659       10.7630275968       23.9515362484
  H        -8.1974789810        9.1572640441       24.0935972576
  C        -9.5994918273        9.6786122855       25.6520116568
  S        -3.5571411756       14.6479624103       36.8036692306
  C        -2.9112726147       17.1980781229       37.3206485298
  H         2.8024546044        6.5568308643        9.4410295687
  H         2.1306765258        5.8698768398       10.9502653650
  H         2.2318590079        7.5573056947       10.8235825514
  H         7.4321901185        5.5739274969       30.4680559903
  H         6.7500065666        6.4707647648       31.8675381108
  H         8.0546298358        7.0323228461       31.0809681285
  H        -9.8836750385       10.5051746963       26.3170347327
  H        -9.2671868027        8.8762066017       26.2837066248
  H       -10.4053551116        9.3094034041       25.0319643262
  C        -3.5886800058       15.3437700127       38.4721139335
  N        -3.4509993351       16.6937770441       38.5130076840
  O        -2.5091866761       18.3204868120       37.1679214194
  S        -4.2832595303       14.5575256437       39.9245851399
  C        -3.6993493044       17.5100277380       39.7478307140
  H        -4.0315620666       18.5381513252       39.4480395682
  H        -4.5833975174       17.1570957907       40.2533438765
  C        -2.4769453128       17.5386116910       40.6633534121
  H        -2.0787741927       18.5388792520       40.8058565323
  H        -2.6183372491       16.9552307954       41.5297196699
  H        -1.7379532731       17.0153483598       40.0373059302
