352
i=
  H         4.5654482970        1.4517759959       12.8061743951
  C         3.8997540279        2.2298786080       12.9757808569
  H         4.3064471043        3.1790338043       13.0201010424
  C         2.9545109053        2.1994179550       11.7440472196
  C         3.1535010166        2.2800142827       14.3231285003
  C         3.7492994982        2.3815130784       10.4287560713
  H         2.2255370935        3.0376782534       11.8841848784
  H         2.4694134649        1.2668861736       11.7560220286
  H         2.4731158815        1.4312951226       14.4360821226
  H         2.6857800581        3.1942744840       14.4726891205
  H         3.9144699052        2.0535042840       15.0773398754
  C         4.5791979101        1.1779816528        9.9550728303
  H         2.9423119602        2.6531206911        9.7505249747
  H         4.3378209909        3.2583540739       10.5527763441
  C         5.2102551377        1.5881403543        8.6313913596
  H         3.9554882971        0.3261538508        9.7053664688
  H         5.3496814930        0.9174612787       10.6801300883
  C         6.4930967222        2.5232145143        8.7697579313
  H         4.4427397358        1.9671893374        7.9525810211
  H         5.5830945566        0.6277903634        8.1404152041
  C         7.8258639835        1.8892411487        9.1880055860
  H         6.6106543016        2.8760054464        7.7928453398
  H         6.3295268087        3.3632166482        9.4012010242
  C         9.0917446491        2.7087282368        9.4173671443
  H         8.0911620257        1.0072912110        8.5395579305
  H         7.5485188275        1.4021561772       10.2033421944
  C         8.7031013270        4.0791032162       10.1240680026
  C         9.5040676085        3.4122698823        8.1680863463
  C        10.2479418967        1.8268447301       10.0454043859
  C         8.9878558154        5.1474001686        9.2886795610
  C         8.0529371995        4.4761016801       11.3287542779
  C         9.5032675589        4.7406359948        8.0318124817
  C         9.7722387275        2.7532295041        6.9396759549
  H         9.9445713600        1.0969257102       10.7907038646
  H        10.7217093858        1.2019989574        9.2888141585
  C        11.3592569876        2.6917455836       10.7407742082
  S         8.5784477658        6.6198993308       10.0005322039
  C         7.8905144576        5.8247438588       11.3233988355
  H         7.6896012000        3.6933204413       11.9351468089
  C         9.8665868837        5.3661867828        6.8963129666
  H         9.8412146084        1.7081395263        6.9529720034
  C        10.1683019406        3.4017517688        5.7974092910
  H        11.0387154886        3.7038719688       11.1273278603
  H        12.1920121314        2.9096310086       10.0249206085
  C        12.0381481891        2.1441251890       11.9661429793
  C         7.3595499513        6.5465461313       12.5041070452
  C        10.2121997238        4.7547799016        5.7236055149
  H         9.7990254783        6.4014676293        6.8081389903
  C        10.5774350292        3.0136570329        4.5626408837
  H        12.7907978846        2.8250856045       12.2850652738
  H        12.5376663107        1.1832437232       11.8022916408
  C        11.0301437025        1.8784049325       13.1010670746
  C         7.4189732029        7.9357300819       12.6755980059
  C         6.9723069893        5.6893069413       13.7203472540
  C        10.5561362844        5.4259346813        4.3948588379
  C        10.8719094842        4.0952041262        3.7142899205
  S        10.8799566725        1.4848771225        3.8105641461
  H        10.1429589762        2.4326301593       12.8263924457
  H        10.7294173666        0.7822740288       13.1845605231
  C        11.6599076991        2.1538344570       14.4722842708
  N         7.6942311841        8.8881735928       11.6442193562
  C         7.1851879191        8.5455338054       13.8822302450
  C         6.7632388913        6.3243741622       14.9303617041
  H         6.7033628262        4.6537099604       13.6077462206
  C        11.7354491959        6.3073255824        4.6420479019
  C         9.4504841221        6.2023982171        3.7703112327
  C        11.1292909224        3.6799536943        2.3773424750
  C        11.2344104297        2.3207344787        2.3746676672
  H        10.9256704595        2.1500532753       15.2889029767
  H        12.0382117594        3.1179612522       14.4219141188
  C        12.7895382064        1.3184697112       14.8217954701
  S         7.5834573951       10.3444974370       12.2471888442
  N         7.2769651947        9.9165716376       13.8206452009
  C         6.9880779810        7.8607542415       15.0700728398
  H         6.4370290283        5.7404741804       15.8006247296
  H        11.5784279194        7.0422767926        5.4263039244
  H        12.0096769450        6.8527806251        3.7323509426
  C        12.8900887671        5.4492154203        5.1089684956
  H         8.9610988535        6.8388942660        4.4233610756
  H         9.7854392098        6.9300472467        3.0113342526
  C         8.3660675080        5.4061636153        3.1197499854
  H        11.2374990462        4.3927471244        1.5760491698
  C        11.5216912104        1.4821036420        1.1031326353
  H        12.4777361066        0.2921535364       14.7520174633
  H        13.6826492602        1.3861037405       14.1474374487
  C        13.4134339292        1.6000884518       16.2013922631
  C         6.7826589483        8.5966234666       16.2789186063
  H        12.8670001860        5.3206051108        6.2037502480
  H        13.0097866368        4.4443183852        4.7708962380
  C        14.2529543445        6.2532853930        4.9568540510
  H         8.0922032850        4.4712140551        3.6523741184
  H         8.8067294717        4.9772141999        2.2215416383
  C         7.0555872684        6.2081966071        2.7920282384
  C        11.5104941571        0.0893787759        0.9678793836
  C        11.8087659180        2.2089323517       -0.1469507767
  H        14.3333732778        2.1811896553       15.9239936381
  H        13.7341750563        0.6599385053       16.5648379783
  C        12.5560900719        2.2765402997       17.1873228465
  H         6.8500910217        9.6890410864       16.1708772005
  C         6.4184884784        8.2031098884       17.5891719910
  H        14.3905107656        7.0885063176        5.5865968877
  H        14.5326530299        6.5588388732        3.9017265707
  C        15.5060562181        5.5371467577        5.3777426714
  H         6.9495754867        7.0701100874        3.4883179720
  H         7.1800768996        6.7022616306        1.8145016775
  C         5.7690409194        5.4865628574        2.8991141405
  N        11.2542435552       -0.8245383549        1.9906466235
  C        11.8201773125       -0.5590911742       -0.2560003507
  C        12.1006095149        1.5734721721       -1.3326326938
  H        11.5723925507        3.2568871094       -0.3005800229
  H        13.1850966420        2.1826926325       18.1105883586
  H        11.6715679078        1.7230378656       17.3553388699
  H        12.3597703946        3.3655488562       17.0702075963
  S         6.2324249749        6.5646514123       18.2297943466
  C         6.2420493692        9.2251978900       18.6447635722
  H        15.3325124262        4.5073892735        5.4112692168
  H        16.2513118537        5.7696471656        4.6531037696
  C        16.0058533390        5.8081278710        6.8150768732
  H         5.6747706165        5.1662394097        3.8872369580
  H         5.8684529399        4.6330585094        2.2722400499
  C         4.6134677388        6.3174515742        2.3858084911
  S        11.3254893711       -2.3202473029        1.3215117411
  N        11.7808113079       -1.9307579151       -0.1459624803
  C        12.2244342965        0.1146979501       -1.4280739339
  H        12.3972005980        2.1549071596       -2.2029608199
  C         5.9777067311        7.2306877558       19.7822582584
  N         6.0169216514        8.5693650924       19.8180788793
  O         6.5344004464       10.4170413081       18.4896827330
  H        16.2072446684        6.8709473674        6.9686771355
  H        15.1115107634        5.6859840530        7.4427857782
  C        17.2772524836        5.1896846958        7.2990247930
  H         4.8285576431        6.6186567219        1.3618615261
  H         3.6670811336        5.7378618441        2.4107108254
  C         4.2936168341        7.4437602949        3.3940337769
  C        12.4866139310       -0.6549862119       -2.5952925760
  S         5.8687088841        6.2462312986       21.3378535618
  C         6.0905759576        9.3834874890       21.0762533536
  H        17.1206512185        4.7937103329        8.2963833543
  H        17.3872267116        4.3636170632        6.6153001149
  C        18.4159267858        6.1448239913        7.2733416497
  H         5.0529140130        7.7994761298        4.0304486088
  H         3.5231704012        7.0043312648        4.0856757401
  C         3.5708590121        8.5691432352        2.7750230422
  H        12.3106991326       -1.7934604685       -2.6483048209
  C        13.0345491567       -0.2652283992       -3.8102705005
  H         5.4800091362        9.0171654943       21.9334052219
  H         5.6353854108       10.2436847373       20.7251040871
  C         7.5121454420        9.4581072463       21.5220148962
  H        19.2192544796        6.1085304406        8.0450523804
  H        18.1183784243        7.1181807630        7.4647953746
  C        19.1135016604        5.9882172756        5.9340140768
  H         2.5598855505        8.2822660572        2.5234316186
  H         3.6128541106        9.2832157394        3.6440367230
  C         4.3017403330        9.1642467007        1.5691598277
  S        13.6109627513        1.2772498625       -4.3107582555
  C        13.1531245871       -1.3004362843       -4.8429914875
  H         7.6713517126       10.3066530955       22.2221880005
  H         8.0521289809        9.7207177919       20.6228675024
  H         7.9143633898        8.6153197038       22.0140213018
  H        20.2033511703        5.8726479534        6.1148731628
  H        18.8283588117        5.2093453210        5.2567621674
  H        19.1171230429        6.8310671070        5.2470231218
  H         4.3759594438       10.2174437266        1.5918110562
  H         5.3573950587        9.0137351852        1.6414101392
  H         4.1463081924        8.6901012604        0.6031413740
  C        13.9876102485        0.5071898444       -5.8305466055
  N        13.9094731848       -0.8425151111       -5.7879043769
  O        12.7776475690       -2.5087508603       -4.8078484066
  S        14.8306610794        1.2563172566       -7.1966813098
  C        14.2646210664       -1.7700901783       -6.8272468774
  H        14.5723363120       -2.7027142761       -6.3207952670
  H        15.2022320804       -1.3714423261       -7.2724694724
  C        13.1701066579       -2.0730055486       -7.7858513954
  H        13.5459743232       -2.0849988116       -8.7760566757
  H        12.4680713564       -1.2048767698       -7.7351889644
  H        12.6587935851       -3.0377472904       -7.6413263707
  H        -4.0763904343       14.3137290782       16.4653741232
  C        -3.6151835422       13.3210123382       16.6053936562
  H        -4.3342228076       12.6051424055       16.9921555342
  C        -2.4496549414       13.4300463072       17.5960714253
  C        -3.0931584478       12.8362404648       15.2706797118
  C        -2.9636022617       13.4904236984       19.0955261599
  H        -1.8404018063       12.4765720618       17.4947805774
  H        -1.8014712891       14.2878729572       17.3269810359
  H        -3.8946161218       12.9929279738       14.6059509517
  H        -2.3474591829       13.4316970254       14.7350564420
  H        -2.8787571902       11.7558175292       15.2904617674
  C        -1.7705508841       13.5273471111       20.0589555153
  H        -3.3521312278       12.5040622689       19.3485909109
  H        -3.6868133818       14.2567059094       19.2731603686
  C        -2.2770281491       13.7460679190       21.4729745646
  H        -1.2919322596       12.5822634483       19.9455078245
  H        -1.0317023441       14.2291948080       19.6602373013
  C        -1.3642619629       13.0053359838       22.4576721055
  H        -3.3039306117       13.4556474751       21.6799491751
  H        -2.3253615843       14.8122894205       21.5977009426
  C        -0.1698553912       13.8467642127       22.8346964794
  H        -1.9663898302       12.7559394726       23.3827575004
  H        -1.0211906347       12.0325079239       22.1470791473
  C         1.0430959874       13.1156795735       23.4256146423
  H         0.0955394822       14.5184920975       22.0307187738
  H        -0.4207314766       14.6218319875       23.5088414288
  C         1.3681632768       11.8021529041       22.7180685082
  C         0.6969263778       12.3211708215       24.6907894430
  C         2.3002185237       14.0136770975       23.6071643083
  C         1.1366002790       10.6442869384       23.4912714035
  C         1.8398170824       11.3476829868       21.4857019876
  C         0.7020443169       10.9461151747       24.7888330229
  C         0.1346089204       12.8963856955       25.8544216912
  H         2.4663734780       14.7894457305       22.8588200123
  H         2.2477073007       14.5615434817       24.5448963137
  C         3.5478335550       13.2976311260       24.0126078670
  S         1.5100164408        9.1741741237       22.7545002619
  C         1.8435550727       10.0074693821       21.2980118388
  H         2.2479968229       12.0748814710       20.6989316501
  C         0.2918168213       10.2607033729       25.9156934912
  H         0.1337657654       13.9592569966       25.9894564567
  C        -0.3108348366       12.2356640753       26.9455952853
  H         3.8271508636       12.6924973763       23.2006180638
  H         3.4470637700       12.6414978852       24.9091203144
  C         4.6632402869       14.2743054565       24.3743267074
  C         2.3887823165        9.2805591543       20.0753935820
  C        -0.2092208118       10.8763383475       27.0592472616
  H         0.2539098276        9.2187111819       25.8311750386
  C        -0.7627621986       12.6049831075       28.1494922022
  H         5.4905773753       13.7137528800       24.9144097941
  H         4.2888926567       15.0742816207       25.0368941922
  C         5.3002807648       14.9365752238       23.1656443413
  C         2.3760854909        7.8464352821       19.8259636406
  C         2.8242841401       10.1579665215       18.9354865411
  C        -0.6395548912       10.1835977674       28.2579374648
  C        -0.9394257730       11.5146030557       29.0057292084
  S        -0.9679450516       14.1115210769       28.9864881419
  H         5.8572684660       15.7503103215       23.6571601135
  H         4.5504570458       15.4997091933       22.4841026712
  C         6.3188249454       14.0617299022       22.3858749846
  N         1.8740342087        6.8472474444       20.6975844841
  C         2.6761851404        7.2815546814       18.6287832049
  C         3.2013748811        9.5360155592       17.7364739406
  H         2.9103228515       11.2348707483       18.9610248238
  C         0.4671463850        9.4712875050       28.9793966024
  C        -1.9241228817        9.3263735395       27.9758066609
  C        -1.4253076196       11.9438360685       30.2504289553
  C        -1.4356672366       13.3393542060       30.3780259875
  H         7.3232684946       14.5434946017       22.4398693100
  H         6.5359847313       13.1615880661       22.9695513124
  C         5.7527829263       13.7583418700       21.0260783233
  S         2.2028929082        5.4509893924       20.0679922242
  N         2.6671693410        5.9296738522       18.5546125016
  C         3.1160828556        8.0809628082       17.5129218555
  H         3.5641106962       10.1454950993       16.8234355681
  H         0.7806025106        8.5451875071       28.3756762705
  H         0.0392968669        9.0008926466       29.8352943112
  C         1.7548839896       10.2612204852       29.2951007696
  H        -1.5788621289        8.4334241595       27.4225158366
  H        -2.2871868192        8.8936954819       28.9331924239
  C        -3.0841104005       10.0903531862       27.2303477461
  H        -1.7485154159       11.2006430421       31.0004290060
  C        -1.6240315624       14.0294744211       31.7128526391
  H         5.4563187116       14.7629986635       20.7406240037
  H         4.9652773979       13.0599784950       20.8858951904
  C         6.9025456195       13.3146987739       20.1426918907
  C         3.3605507162        7.3806736342       16.2315536365
  H         2.0450770827       10.7037706287       28.3392331113
  H         1.4931096303       11.1171543868       30.0076743371
  C         3.0083375755        9.5698498118       29.9221397004
  H        -2.7704163474       10.4844212324       26.2813291393
  H        -3.2108069328       10.8249317593       27.9630460544
  C        -4.4083038486        9.4993500859       26.9636037464
  C        -1.7333317505       15.4202211860       31.8873348536
  C        -1.8454566125       13.2098755602       32.9385047409
  H         7.8869080824       13.7575989086       20.2751276933
  H         6.9974223404       12.2395159306       20.2958009971
  C         6.5657614686       13.4965825456       18.6663555204
  H         3.4122370902        6.2486164703       16.3146969405
  C         3.5753873934        7.7984205145       14.9686656539
  H         3.1640736346        8.7715486107       29.2016401523
  H         2.8891163817        9.2681851332       30.9488931979
  C         4.2171961210       10.4205886378       30.0269064961
  H        -4.1471884872        8.7131865895       26.2893038281
  H        -4.8347356263        9.1069312872       27.8909252400
  C        -5.3952991108       10.5154910067       26.4048834735
  N        -1.4522039636       16.3297247672       30.8604263805
  C        -2.0314895808       16.1038775249       33.1032467763
  C        -2.2044600605       13.8247051204       34.1380540304
  H        -1.6844161497       12.1759255173       32.8661423676
  H         5.9737907416       14.3810061621       18.5155434860
  H         7.5247572637       13.5887431032       18.1282927482
  H         5.9444118615       12.7838880529       18.3023329555
  S         3.7984119924        9.4133601841       14.4111380898
  C         3.7603265048        6.7194717698       13.8753842408
  H         4.2897966203       11.0649681181       29.1753702582
  H         4.1012779292       11.1262005206       30.8149746790
  C         5.4761702148        9.4656264399       30.1214034969
  H        -4.8393238554       11.1302836707       25.6388136882
  H        -5.7634933459       11.1610073023       27.1620052352
  C        -6.4617220581        9.7140750693       25.6464011259
  S        -1.5717459983       17.8814554674       31.5217116488
  N        -1.9215552655       17.5392601936       33.0160414142
  C        -2.2910371165       15.2973409766       34.2324870744
  H        -2.3190810609       13.2616509880       35.0912911225
  C         3.8738087656        8.7423258382       12.8278087660
  N         3.8916355846        7.3466218162       12.7625410466
  O         3.6646079455        5.5206585870       14.0640486869
  H         6.3340437657       10.1226455018       30.1819083377
  H         5.5432369121        8.7982365899       29.2517092151
  C         5.5877721971        8.8130918331       31.4879748570
  H        -6.0258445724        9.3440608293       24.7229769599
  H        -6.9003020940        8.9538140734       26.2602541196
  C        -7.5301406625       10.7062140067       25.2175094797
  C        -2.6214410902       16.0243709149       35.4478593529
  S         4.3269348432        9.6252012284       11.3008128333
  C         3.6946522658        6.5573714587       11.5202706045
  H         6.3833296928        9.3445680901       32.0068852225
  H         4.7647778134        8.7717386591       32.2325167261
  C         5.9450774435        7.2937987643       31.4141865563
  H        -7.0809896161       11.0767775196       24.2193942212
  H        -7.6115878682       11.4927746815       25.9454261851
  C        -8.8508071276       10.0075518261       24.8398631156
  H        -2.5706233699       17.0956580500       35.3605306696
  C        -3.1944830902       15.7553713719       36.6994715471
  H         4.1968104168        6.8754359985       10.6363067135
  H         4.2373475512        5.6170876574       11.7370231317
  C         2.1888066210        6.4725677510       11.2164424604
  H         6.3197056769        6.9277603523       32.3481234772
  H         6.7613104752        7.1846525044       30.6799343784
  C         4.8999072258        6.3246921007       30.7955621708
  H        -9.2793902801       10.4492683182       23.9584081428
  H        -8.6108723388        8.9953680959       24.4306785993
  C        -9.8911566818        9.9750977993       25.9780730553
  S        -3.4860365114       14.1822606648       37.4091407921
  C        -3.3920067922       16.9040861706       37.6056735123
  H         1.8118618526        7.2672746311       10.6057230178
  H         1.8749400135        5.5378608506       10.7387959734
  H         1.5845537946        6.5737738498       12.1471868525
  H         5.2503494780        5.8770100032       29.8838454743
  H         4.0299839663        6.8477094781       30.5754172260
  H         4.6619942593        5.5184941830       31.4914729517
  H        -9.5575433733        9.4456234303       26.8459768637
  H       -10.7401518965        9.4847775437       25.7068825873
  H       -10.2035353092       10.9189480940       26.2775180330
  C        -3.8579086131       15.1071736415       38.8230773270
  N        -3.8695714449       16.4724218772       38.7424827795
  O        -3.0751338707       18.0945030602       37.4820401051
  S        -4.5135921790       14.5273804660       40.2981827295
  C        -4.1846872173       17.3409496813       39.8810983296
  H        -4.2415465663       18.3871079681       39.6005079490
  H        -5.2159880028       17.0333507962       40.2993084479
  C        -3.0773774651       17.1873597465       40.8991139311
  H        -2.9954456227       18.0868158012       41.4496152959
  H        -3.2381840364       16.3683902376       41.5816378256
  H        -2.0953917588       16.9866480174       40.4122074572
