352
i=
  H         4.6124755209        1.3636540865       12.8403347133
  C         4.3239574765        2.4530419421       12.9401733644
  H         5.2841922577        2.9871050535       13.0956664094
  C         3.6812896386        2.9632408388       11.6523354911
  C         3.3848159125        2.6090634080       14.1121627538
  C         4.5673734669        3.2396751430       10.4685733012
  H         3.3259939451        3.9913312499       11.9039824601
  H         2.7933706098        2.4307860342       11.4886641963
  H         3.9938223315        2.6084099456       15.0424067077
  H         2.6497986291        1.7986685878       14.2057097984
  H         2.8861735246        3.5113183424       14.0935228319
  C         4.8349435506        1.8487624850        9.8167817542
  H         4.0331845242        3.9425922130        9.8411689223
  H         5.5395012504        3.6688739117       10.7566193977
  C         5.4959651526        1.9197424621        8.4336302388
  H         3.8154868494        1.4096513866        9.7283376978
  H         5.5257529742        1.2111149697       10.3995551057
  C         6.7935418190        2.7936447465        8.4337371538
  H         4.8155703533        2.1982440654        7.6835724231
  H         5.6159280610        0.8508780268        8.2799850150
  C         8.0090114080        2.0980902995        9.0124330627
  H         6.9115854811        3.0448004893        7.3972189314
  H         6.5945612512        3.6790756059        8.9594244933
  C         9.2519758434        2.9261983225        9.2727991576
  H         8.4032614221        1.3953511362        8.2665101344
  H         7.7396694483        1.6220142578        9.9938778447
  C         8.8664520384        4.2302569093       10.0257862198
  C         9.7746192698        3.7132596719        8.0856036169
  C        10.5278782470        2.2140626356       10.0175988629
  C         9.0839574425        5.3468378872        9.2362950570
  C         8.3267359510        4.5664974469       11.2610104386
  C         9.6501238110        5.0335133920        8.0127081575
  C        10.1290423809        3.1423767567        6.8599085688
  H        10.1718829425        1.8018336358       10.9711379101
  H        10.7938880109        1.5176149870        9.2805911043
  C        11.7423484195        3.1590348884       10.3108242039
  S         8.6292714988        6.8274808904       10.0172527190
  C         8.2480596015        5.9264040479       11.4129532839
  H         8.0336197028        3.8376285890       12.0070486499
  C        10.0999616356        5.6930826112        6.9054722299
  H        10.1246126609        2.0515467110        6.9576714989
  C        10.5952238482        3.7127684429        5.7366347235
  H        11.4122048888        4.1494362494       10.5838371427
  H        12.3583379374        3.4242946480        9.4484136198
  C        12.7608728177        2.6435874921       11.2673577472
  C         7.6865293068        6.6205699819       12.6732209995
  C        10.5872650921        5.0810808543        5.6957644432
  H         9.8958534727        6.7403216554        6.7681913878
  C        11.0121084161        3.3584256930        4.4669171618
  H        13.7843659966        2.9135974720       11.1129381959
  H        12.7507614900        1.5311898149       11.2540013864
  C        12.4843295846        3.0550782597       12.7283479254
  C         7.8059751177        7.9982629262       12.9065605374
  C         7.1917577382        5.8913861325       13.8542498593
  C        11.1023133167        5.7378976250        4.4413406989
  C        11.4177937971        4.4433963725        3.6821042281
  S        10.9824187461        1.8394651722        3.6327926611
  H        12.9762928246        3.9603207894       12.7551995365
  H        11.4207601018        3.3584520280       12.8673677924
  C        13.0233101610        2.0263218255       13.7491835097
  N         8.3110161879        8.9737991290       12.0161693004
  C         7.5560807488        8.5424116448       14.1628386052
  C         6.8167708036        6.5097504662       15.0794034396
  H         7.0823963261        4.8115171143       13.6986716033
  C        12.4417368858        6.4712530704        4.7973066836
  C         9.9510591221        6.5021941837        3.7577651630
  C        11.7552527853        4.0175657537        2.3533613079
  C        11.5678707935        2.6528333716        2.2328872169
  H        14.0451189918        1.7053867477       13.5759968464
  H        12.3774149363        1.0929901003       13.7468647975
  C        13.1375967158        2.7161007875       15.0825025301
  S         8.1883923677       10.4870228628       12.6116608287
  N         7.7911100416        9.9373793631       14.1422860673
  C         7.0702475152        7.9485904035       15.3169481207
  H         6.3903691433        5.9296377976       15.8397309558
  H        12.1932424236        7.1054700073        5.6367028354
  H        12.8577749293        7.1426856655        4.0011684145
  C        13.4871919895        5.5194084131        5.4368119958
  H         9.4253305286        7.2455948276        4.4768603811
  H        10.3814248161        7.1481609627        2.9884688475
  C         8.8424926156        5.6268703382        3.1073649769
  H        11.9614776211        4.7405159155        1.6250782767
  C        11.8155150454        1.8856163553        0.9883393549
  H        14.1727889045        3.0024354856       15.2338340500
  H        12.5763086255        3.6226519085       15.1116442699
  C        12.8363527196        1.7203113169       16.1634433294
  C         6.8573196999        8.7262717471       16.5652446864
  H        13.0802233123        4.9415195771        6.2699976317
  H        13.8283261395        4.7177547093        4.7815160206
  C        14.6519381693        6.3152187907        5.9599630572
  H         8.4511563639        4.7776535392        3.7132858334
  H         9.2892017527        4.9955688693        2.3406315852
  C         7.7031907811        6.4062894062        2.4449185566
  C        11.8001845641        0.4614949440        0.8942367659
  C        11.9255057347        2.6027511224       -0.3428268572
  H        13.6958146829        0.9878740009       16.2954136090
  H        11.9362303212        1.0646353014       16.0399129519
  C        12.7296152667        2.4009386659       17.4784376349
  H         6.4878610479        9.6830696871       16.3870195218
  C         6.5497769653        8.2799938884       17.7970451391
  H        14.3118569686        7.0582260716        6.6576060652
  H        15.1491196029        6.8383880137        5.1070287778
  C        15.6403684942        5.3593616134        6.4087869275
  H         7.2724136756        7.0728295906        3.1533977460
  H         8.1811679087        7.0045574422        1.6514190361
  C         6.5407881959        5.6103023511        1.9294432887
  N        11.6365157373       -0.4400360965        1.9992917547
  C        11.9454684967       -0.2378775138       -0.2983782165
  C        12.1111945908        1.9173583238       -1.5449876357
  H        11.8074828264        3.6928017084       -0.4154037460
  H        12.1227888130        3.2959704543       17.2807133278
  H        13.6700118074        2.8077077256       17.8551199296
  H        12.1809970688        1.8974759521       18.1952263921
  S         6.2778091830        6.6901736696       18.2685743642
  C         6.7117951929        9.2594545756       18.9006274250
  H        15.4956311556        5.2684542823        7.5163189970
  H        15.6395372345        4.4218528052        5.9330692441
  C        17.0405464848        6.0751957997        6.3203779001
  H         5.7745303579        5.4063654101        2.6572570001
  H         6.8986971301        4.6545457301        1.5878580555
  C         5.9062433494        6.3690790749        0.8098110995
  S        11.7456783102       -1.9514122905        1.4867227004
  N        12.0066100038       -1.5791237118       -0.1068066217
  C        12.2015747428        0.4146057805       -1.4919011347
  H        12.1589235133        2.4628819963       -2.4585271415
  C         6.0883775087        7.4101339153       19.9175822238
  N         6.3110353825        8.6829537200       20.0276072563
  O         7.0470417531       10.4163392889       18.7258665421
  H        17.3045942219        6.0462456847        5.2169236484
  H        17.0760965889        7.0901960966        6.6645180340
  C        18.1577684102        5.2358303806        6.9796446663
  H         6.6230412858        6.8845781465        0.2126130207
  H         5.2256453647        5.6697415071        0.1717195446
  C         5.0008433667        7.4871023943        1.4229616999
  C        12.4402648043       -0.3610516880       -2.6519357033
  S         5.7120043885        6.4585477350       21.2670051132
  C         6.3759925377        9.4276231577       21.3347079403
  H        17.7537204429        4.7325332406        7.8123863606
  H        18.3447865653        4.4261890070        6.3000533917
  C        19.3523513595        6.1310171249        7.4278811644
  H         5.3651597902        7.9440749239        2.3661457570
  H         4.1118836177        7.0138113716        1.7511165895
  C         4.6040065678        8.5722493200        0.3502064542
  H        12.1073537508       -1.3935161934       -2.7881147858
  C        13.0912359842       -0.0075675033       -3.8163577737
  H         5.6746324971        8.9509919348       22.0311905578
  H         6.0882558990       10.4673042291       20.9973628502
  C         7.7949215453        9.2737763338       21.8505426999
  H        19.6536863373        5.8144146815        8.4322737046
  H        19.0157043045        7.1477693598        7.4630571144
  C        20.4002314971        6.0276121912        6.3050294531
  H         5.4936661440        9.0970907544        0.1088299764
  H         4.2651915359        8.2406609419       -0.5387452969
  C         3.5357926323        9.4854160656        0.9152961911
  S        13.7491692083        1.5157585481       -4.2422924037
  C        13.2758199414       -1.0998913196       -4.8578733665
  H         7.9277555482        8.3906335776       22.4274703779
  H         7.9841524068       10.1300610219       22.5248582924
  H         8.5776630834        9.2583540202       21.0382629863
  H        20.8063320559        5.0471750465        6.3274622190
  H        19.9969241804        6.1363854594        5.3823126467
  H        21.2351650054        6.7365666034        6.2766958928
  H         3.8818187301       10.4551777859        1.3582461988
  H         2.8430051572        9.6109835360        0.1333064886
  H         3.0078578906        8.9813008343        1.7024621972
  C        14.2062302092        0.6794736499       -5.7332727785
  N        13.9727792579       -0.6318769488       -5.8765484858
  O        12.7954806186       -2.2280668410       -4.8291070647
  S        14.9868424177        1.5567707466       -7.0559908183
  C        14.2489256916       -1.3764947881       -7.0958780856
  H        14.3928169747       -2.4389295560       -6.7740198182
  H        15.1572915771       -1.0833950268       -7.5567609229
  C        13.0983249181       -1.1260922497       -8.1225007948
  H        13.1833871452       -1.8274070653       -8.9216269268
  H        13.2605885506       -0.1622387207       -8.6014915858
  H        12.0703353743       -1.2670772718       -7.7371497375
  H        -0.7237094121       13.6345575286       16.0128298562
  C        -1.6533201520       14.1779361170       15.9226067687
  H        -1.4616752576       15.1249190225       15.5250086905
  C        -2.3902207106       14.4615979265       17.2198071620
  C        -2.4880022992       13.1628631568       15.1106547607
  C        -2.3399831514       13.3166456942       18.3016679279
  H        -1.9934775794       15.3258610161       17.6827453736
  H        -3.4020876962       14.7070326435       16.9618514380
  H        -3.3450827967       12.7438905980       15.6423583314
  H        -2.7075709731       13.6193386977       14.1015350351
  H        -1.9155896683       12.3109637990       14.8077835152
  C        -1.3626977149       13.4439498563       19.4351458058
  H        -1.8250134801       12.5390915873       17.8202725116
  H        -3.2917806046       13.1632056720       18.7002694451
  C        -1.9278458086       13.4002072702       20.9184164130
  H        -0.5751588725       12.6499224290       19.3408896284
  H        -0.8386672478       14.3909618727       19.3790475073
  C        -0.9449574285       12.7650981918       21.9054798156
  H        -2.8483665815       12.8214731174       21.0391827030
  H        -2.1996201425       14.3620946895       21.2199094221
  C         0.2218055510       13.6293261993       22.3851606582
  H        -1.5064953113       12.3589016564       22.7653712460
  H        -0.3708149712       11.9877449710       21.4194015963
  C         1.3064036637       13.0272155601       23.2618269159
  H         0.7275449035       14.1821334781       21.6476351117
  H        -0.2705342345       14.4171516275       23.0236010798
  C         1.8275420660       11.7520728241       22.5690347172
  C         0.9013787915       12.2212977856       24.5164228545
  C         2.4771458669       14.0741426916       23.5778255353
  C         1.6463971282       10.6020225368       23.3220547427
  C         2.3830234999       11.4971980008       21.2604963729
  C         1.1375904685       10.8520548128       24.5914953697
  C         0.3323173972       12.8165787588       25.6668995095
  H         2.4102743587       14.8139198485       22.7637900778
  H         2.1612512479       14.5083661825       24.4940891076
  C         3.8373477192       13.3538782886       23.7714649935
  S         2.1729315711        9.1767027491       22.5442034867
  C         2.4770527656       10.1407008705       21.1056788197
  H         2.3981533388       12.3015976066       20.5467770926
  C         0.7937375517       10.1927931395       25.6966774789
  H         0.0159122941       13.8764164398       25.6287708189
  C         0.1000536613       12.1043069164       26.8513407953
  H         4.1969098866       12.8035610547       22.9734070597
  H         3.7150080171       12.6306424890       24.5807848966
  C         4.8026459915       14.3234366726       24.2080382215
  C         2.7285299169        9.4590757075       19.8139962569
  C         0.3581842849       10.7854062189       26.9212154332
  H         0.9858223803        9.1193085321       25.7479558744
  C        -0.3140599163       12.4839081789       28.0756264774
  H         5.4894588617       13.8022938772       24.9144006929
  H         4.3094734472       15.0603594377       24.9058439065
  C         5.5755755680       15.1340272773       23.1729123276
  C         2.7794834123        8.0450188765       19.5984428295
  C         3.1752288922       10.2704320976       18.6631490900
  C        -0.0001402616       10.0664759277       28.1588209043
  C        -0.4824968186       11.3587097539       28.8457939533
  S        -0.8367211192       13.9906854489       28.7821667361
  H         6.2805322339       15.8426081045       23.6077332383
  H         4.8791929554       15.7794610857       22.5581264892
  C         6.4159895096       14.3071709598       22.2258519283
  N         2.4532381376        7.0650396126       20.5848905146
  C         3.0044460027        7.4482825222       18.4118117376
  C         3.3989199564        9.6237721648       17.4080531103
  H         3.3166040188       11.3411165788       18.6827269323
  C         1.1415045702        9.3485135786       28.8277959753
  C        -1.2141987513        9.0721371325       28.1257044540
  C        -1.0533334477       11.7010404684       30.1138953195
  C        -1.2766550054       13.0806678949       30.2063843296
  H         7.4561779726       14.6289404560       22.0572492954
  H         6.6353791494       13.2529112650       22.4577603471
  C         5.8382700777       14.3197307101       20.8085645163
  S         2.4490147765        5.5645433120       19.8573804621
  N         2.7333188457        6.0491446862       18.3419664604
  C         3.2900937782        8.1532935209       17.2451480199
  H         3.6979091762       10.2022980161       16.5726898065
  H         1.5246299918        8.7288928664       27.9462947014
  H         0.7846612371        8.5905406926       29.5180411887
  C         2.1436154433       10.3100173247       29.5271671378
  H        -0.9062594198        8.2340001570       27.5529686704
  H        -1.4524417857        8.7614539706       29.1194310826
  C        -2.4448072892        9.7057671443       27.4509795775
  H        -1.2937162623       10.9440496470       30.7941389687
  C        -1.6598494038       13.7647039475       31.5044415005
  H         5.7229710478       15.3656090075       20.4864973651
  H         4.7922968204       14.0066744856       20.9774347578
  C         6.4859514518       13.3802652159       19.8079427890
  C         3.4697982662        7.5482156092       15.9547419675
  H         2.2390468100       11.3049081674       28.9993918302
  H         1.8835155533       10.5531283321       30.5769833834
  C         3.4621889431        9.5627882376       29.8484890965
  H        -2.1060589472       10.3725072911       26.6069333296
  H        -2.8874351546       10.3732766770       28.1535912903
  C        -3.3750681660        8.5781935152       26.8667652154
  C        -1.7232140258       15.1640796284       31.7681192924
  C        -1.8306590906       12.9318620590       32.8008217375
  H         7.2243667481       12.6546536367       20.1316822208
  H         5.6354408632       12.7303500087       19.3763112223
  C         7.1636170789       14.1817329666       18.6722086396
  H         3.1490375045        6.4980196158       15.9948231948
  C         3.8574207062        8.0180092191       14.7268226372
  H         3.7385228723        9.1311393477       28.8784534680
  H         3.2902868586        8.7506340735       30.5403641005
  C         4.6077908335       10.4629314852       30.3396145544
  H        -3.1836765418        8.1317480164       25.9103954432
  H        -3.3368297951        7.7734770896       27.5297374350
  C        -4.8164287892        9.1206609731       26.8900835129
  N        -1.5709672775       16.1097830350       30.8029412913
  C        -1.9273713965       15.7334320901       33.0280529647
  C        -2.0307674006       13.4924651009       34.0619412581
  H        -1.7776142913       11.8807072608       32.6912167626
  H         7.7192500504       15.0889476523       19.1580466723
  H         7.8617459587       13.4396314985       18.2536695441
  H         6.5039482976       14.6232245168       18.0074457057
  S         4.2269181121        9.6387037011       14.2137002181
  C         3.9941014235        7.0184308431       13.6638143799
  H         4.5527532186       11.4081259842       29.7885129768
  H         4.4425440737       10.7167939833       31.3568655494
  C         6.0273228648        9.8207434191       30.1874843405
  H        -4.9900168995        9.8957368240       27.6434937436
  H        -5.5165513039        8.3215616398       27.1050597715
  C        -5.1311166675        9.7378066442       25.5053931028
  S        -1.7074102859       17.6578730517       31.4641851026
  N        -1.8974004578       17.1070336077       32.9504815344
  C        -2.0997156399       14.9539679047       34.1825581351
  H        -2.2811291355       12.8421529433       34.9048767135
  C         4.5149820390        8.9255184232       12.5696925201
  N         4.4522947559        7.6064484044       12.5674240126
  O         3.6460090127        5.8471078612       13.8273930534
  H         6.7962710177       10.5579725271       30.3446456812
  H         6.1203491011        9.4071302164       29.1987490277
  C         6.2229789228        8.5891363178       31.0710601889
  H        -4.2411521979       10.2920051957       25.1485278479
  H        -5.2728040540        8.9344178049       24.6911402864
  C        -6.2717314135       10.7327159560       25.4603177812
  C        -2.2983445491       15.6222154362       35.4187181112
  S         4.9390854659        9.8966129601       11.1406627526
  C         4.5496804293        6.7428113328       11.3728682232
  H         7.1612919670        8.7415203587       31.6274867113
  H         5.4565042616        8.4184997258       31.7855036297
  C         6.4424499913        7.2104425989       30.3115064313
  H        -6.4524576795       11.0025014955       24.4695156116
  H        -5.8791176067       11.6428375009       25.9846436725
  C        -7.5530088783       10.2297419246       26.0273393751
  H        -2.0975439149       16.6357913087       35.4400782388
  C        -2.9757693749       15.2411949622       36.5424151424
  H         5.1449899477        7.1697271197       10.6059250705
  H         4.9684573397        5.7514579579       11.6237866221
  C         3.1286104248        6.7201214728       10.8715281620
  H         7.2155542555        7.2030952643       29.5157740603
  H         5.4996624311        7.0716018261       29.7990178390
  C         6.6154314396        6.0267038191       31.2220604349
  H        -7.4691378125        9.2343052978       26.4367735292
  H        -7.8434138118       10.9379418287       26.8083609045
  C        -8.6706480091       10.3383211084       25.0224223852
  S        -3.7093247491       13.7303173398       36.8749543915
  C        -3.2077912068       16.2566434744       37.6135672704
  H         3.0373086218        6.0799285849       10.0174863188
  H         2.3619688322        6.5569184362       11.6358571554
  H         2.8937296035        7.7562833994       10.5924592488
  H         6.9061271678        6.2522552562       32.2216458673
  H         7.3660584666        5.3594806147       30.8784936532
  H         5.6318357851        5.4089797612       31.1503423350
  H        -8.5038345023        9.5255283321       24.2939837700
  H        -8.6999719246       11.3222880283       24.6153382903
  H        -9.6452037210       10.0780386272       25.4238111282
  C        -4.1362110137       14.3606858706       38.4787456944
  N        -3.8092709721       15.6578081561       38.6661169951
  O        -2.7463945792       17.3843696131       37.6246952693
  S        -4.8267536477       13.4578275432       39.8046965891
  C        -4.1463867658       16.3591363343       39.8647307716
  H        -4.1205718201       17.3580273893       39.5287343394
  H        -5.1566499899       16.1526783833       40.1863911749
  C        -2.9658883895       16.1478706447       40.9613658941
  H        -2.6343266637       17.0361068029       41.4628599657
  H        -3.3216318335       15.4686162550       41.7215972318
  H        -1.9959632682       15.7608366464       40.5039854893
