352
i=
  H         5.0445741052        1.2092070506       13.0595060502
  C         4.6467676791        2.2184570462       13.0627976182
  H         5.5800578722        2.7679658712       13.0545545242
  C         3.6242250479        2.4282460553       11.8160102640
  C         3.9322047147        2.1978800032       14.3619279696
  C         4.3321524264        2.6322738012       10.4821373174
  H         3.0992941553        3.3468922207       12.0260911647
  H         2.8839825776        1.5844144200       11.7587349996
  H         3.1962699942        1.4485188450       14.3128475956
  H         3.4632513127        3.2085248946       14.4913590462
  H         4.4839959879        1.8636123002       15.2240686097
  C         4.8700069190        1.3632538671        9.7975616453
  H         3.5258226955        3.0554803479        9.8183536883
  H         5.0468876960        3.4065443370       10.7186392242
  C         5.5081384744        1.6174348697        8.3784878182
  H         4.0979462176        0.5837696623        9.5660933778
  H         5.6363387916        0.9125602342       10.3936182151
  C         6.6912007351        2.5358153378        8.5737115676
  H         4.8542403462        2.1572675697        7.7512746153
  H         5.6539124371        0.7044383499        7.8476447067
  C         7.9605307601        1.8154432400        9.0420133043
  H         6.9278762911        3.0660422217        7.6677721139
  H         6.4548549682        3.3294979888        9.2226047176
  C         9.1615769769        2.7316287950        9.4028504573
  H         8.2274698186        1.1400434668        8.2311492337
  H         7.7605443606        1.0929435658        9.8764865082
  C         8.7589534857        4.0334184319       10.1376792011
  C         9.5620646935        3.5050389282        8.1446114145
  C        10.3426043040        2.0597544510       10.1504115714
  C         8.9045053533        5.1868756228        9.3734593099
  C         8.1825528236        4.2895340678       11.3675222550
  C         9.4554772391        4.8478185134        8.1215894793
  C        10.0219271064        2.9227180468        7.0466844820
  H         9.9962579174        1.6019413123       11.0740846392
  H        10.7364836070        1.1995052105        9.5503922008
  C        11.5031666694        3.0506477416       10.4369014132
  S         8.5080564647        6.6198033243       10.1824796971
  C         8.0432103546        5.6595054618       11.5741918785
  H         7.8928292472        3.5005724108       12.0609083033
  C         9.8278120357        5.5205103055        6.9992650075
  H        10.1625180832        1.8603331141        7.0247623325
  C        10.3067758998        3.6049483577        5.8757608308
  H        11.1420594223        3.9799330213       10.8788794702
  H        12.0367013162        3.3020686784        9.4620568180
  C        12.6127892077        2.4989032979       11.3754519329
  C         7.5770178506        6.3239377180       12.8345861047
  C        10.2221565877        4.9595691752        5.7584399799
  H         9.6887896352        6.5958874343        7.0833117780
  C        10.8093135204        3.2024230622        4.6320266020
  H        13.3088618911        3.3305057485       11.5359173202
  H        13.1995266102        1.8001615494       10.7907196828
  C        12.2218901562        2.1459923944       12.7900434145
  C         7.6354092331        7.7606157630       13.0764017883
  C         7.1019041760        5.4166809434       13.9791608275
  C        10.6950147991        5.6229060628        4.4919760371
  C        10.9784848673        4.3084349933        3.7954217429
  S        11.0012175241        1.6815482251        3.8104480568
  H        11.5858675662        2.9363704665       13.1750821806
  H        11.7043595135        1.2466647027       12.7058454966
  C        13.4095768618        1.8768069089       13.6750429716
  N         8.1049131161        8.7309243803       12.1623611303
  C         7.2783294492        8.3163663531       14.3071520735
  C         6.8547023647        6.0409253263       15.1280768151
  H         6.9310661884        4.3389459426       13.8566521327
  C        12.0294149094        6.3931980597        4.6012108866
  C         9.5652764051        6.4449119610        3.8306340426
  C        11.3630537647        3.8789873207        2.5048406862
  C        11.3222678494        2.5287132215        2.3283365956
  H        13.9068985754        2.8062134860       13.7388858964
  H        14.0788650395        1.1779946735       13.1542620404
  C        12.9984721333        1.2539758736       15.0020741771
  S         8.0074840424       10.2072968558       12.8857027000
  N         7.3305504038        9.7066231231       14.3038878226
  C         6.8206806474        7.5550142559       15.3749578605
  H         6.3719403102        5.4699386482       15.8848118603
  H        11.8186089003        7.2522666678        5.2193749223
  H        12.2512504867        6.7880167737        3.6336653254
  C        13.2845340847        5.5916769889        5.0152734105
  H         9.3306148514        7.2570592124        4.4673732952
  H         9.8416109030        7.0625974450        2.9863507123
  C         8.3720169187        5.6567629139        3.3725954266
  H        11.6449042294        4.6164270637        1.7817521580
  C        11.6299001318        1.7472436032        1.0850575214
  H        12.5613569991        0.2678490543       14.8253485659
  H        13.9802408547        1.0046123572       15.4693614103
  C        12.1749935549        2.1688701880       15.8396967930
  C         6.6331048454        8.2321662828       16.5798672251
  H        13.2098769913        5.0913197070        6.0423008911
  H        13.6122318944        4.8961608063        4.2502905445
  C        14.5087384013        6.4514142642        5.3693082861
  H         8.0787735682        4.9688370759        4.1897328908
  H         8.6571086437        5.1828928099        2.4627705453
  C         7.1849790689        6.5833138582        3.0349950719
  C        11.6523984911        0.3541745037        0.9719030041
  C        11.8544667630        2.4216559601       -0.1952229386
  H        11.2376989755        2.0812413298       15.4075113228
  H        12.5000961695        3.1796445298       15.7284142528
  C        12.1560253844        1.7588805321       17.3096438532
  H         6.7120816165        9.2837759070       16.4973417332
  C         6.4846171220        7.6940412457       17.8764473062
  H        14.3559224515        7.0971449497        6.2610367913
  H        14.8266300280        7.1853263430        4.5266402376
  C        15.6654580153        5.4781061621        5.6160710930
  H         7.0709643011        7.3158876580        3.7673880148
  H         7.4827462929        7.1641324715        2.1627664150
  C         5.8751453138        5.8727010164        2.7542861612
  N        11.3118129005       -0.5636267934        1.9371599424
  C        11.9973277106       -0.3224966078       -0.2155774802
  C        12.2116388357        1.7600816578       -1.4202385721
  H        11.7556017416        3.5297561241       -0.2200815055
  H        11.3261653360        1.2051422771       17.5741730064
  H        12.1476299963        2.6859146930       17.9185935929
  H        12.9894364781        1.1665834451       17.5985483462
  S         6.2317131055        6.0520648027       18.2908095242
  C         6.4552736921        8.6728050466       19.0140177368
  H        15.6907213041        4.5348564699        5.1050741965
  H        16.5482915205        5.9243152391        5.2350623471
  C        15.6908096964        5.0331428199        7.0536179431
  H         5.5804780180        5.5227688784        3.7347248178
  H         6.0261325174        4.9812282437        2.2044810794
  C         4.7449388268        6.6240204210        2.2168649904
  S        11.6688767411       -2.0555210933        1.3630370988
  N        12.1381681957       -1.7045558190       -0.1164204216
  C        12.3221181646        0.3205795515       -1.4780190817
  H        12.5441746296        2.2586486658       -2.2850887830
  C         5.8759124119        6.6589175743       19.9543338768
  N         6.0790244993        7.9882651731       20.1351739231
  O         6.5746773754        9.9207286596       18.9334747704
  H        15.5912517749        5.9577822001        7.6154767963
  H        14.7955781519        4.4551430387        7.4394658141
  C        16.9532480862        4.3530334921        7.6092220691
  H         4.5777993140        6.3037929742        1.2143818072
  H         3.8801324262        6.3012807196        2.8586675469
  C         4.8196017866        8.1391283994        2.3457890533
  C        12.6118580193       -0.4456401351       -2.6624791765
  S         5.3585174392        5.7374258811       21.3387885040
  C         5.8845866995        8.6463404691       21.4508328670
  H        16.7775660234        3.9224831473        8.6226266095
  H        17.3004768131        3.5968531214        6.9994103473
  C        18.1542750940        5.3539053289        7.7627218375
  H         5.5560339536        8.4747569956        1.6737897540
  H         5.2153351466        8.4250366261        3.2626395964
  C         3.5371677383        8.7674466681        1.8300028303
  H        12.3047449908       -1.5230834833       -2.6155639149
  C        13.1598139523       -0.1189196388       -3.8942566310
  H         5.2126349720        8.1033948584       22.0951213387
  H         5.3454879057        9.5230992011       21.1470788299
  C         7.2766783937        8.8588325329       22.1233581191
  H        18.5907620806        5.4476651631        8.7502403486
  H        17.7403291887        6.2711272681        7.5095425523
  C        19.3154273727        5.0288233581        6.7466052543
  H         3.5309168875        8.6384852826        0.7196778060
  H         2.6488549350        8.3031180822        2.3281803865
  C         3.6282341492       10.3330560807        1.9181794927
  S        13.9180882525        1.4019058540       -4.3152224908
  C        13.0991353532       -1.1327684406       -4.9666840579
  H         7.4814258407        8.1362282608       22.9211006654
  H         7.4171394261        9.8423148578       22.4077130386
  H         8.1077755448        8.6622862041       21.4357599325
  H        18.9138503493        4.5641534001        5.8395886573
  H        19.8048928697        6.0077998450        6.5019819316
  H        20.0585926972        4.4050968557        7.1076280983
  H         4.2777742213       10.4981853738        2.8055255282
  H         4.0395603943       10.7419552671        1.0397105952
  H         2.6933766073       10.7974555537        2.1039712509
  C        14.2754782093        0.5732852774       -5.8831465573
  N        13.7929146720       -0.6387025654       -6.0171417418
  O        12.6995637796       -2.3036166445       -4.8441808335
  S        14.7265568451        1.3753353542       -7.3824430986
  C        13.8731266359       -1.3854812133       -7.2601075949
  H        13.7796151367       -2.4561718859       -7.0915331970
  H        14.8404618010       -1.2052534469       -7.6752368966
  C        12.7537212683       -1.1207660639       -8.2163843514
  H        13.0791992727       -0.3368316950       -8.9468140278
  H        11.8619921239       -0.8791471347       -7.7205361599
  H        12.5008040701       -2.0444534988       -8.7714564452
  H        -3.0140057554       15.2762454584       16.4764235429
  C        -2.7333930069       14.3063702550       16.6382908103
  H        -3.4805156271       13.7275744994       17.1572727668
  C        -1.4519938962       14.3766119786       17.5192552321
  C        -2.4651622486       13.7360475114       15.2500102780
  C        -1.8165713721       14.8062145904       18.9403786547
  H        -0.8497754486       13.4932380430       17.6273349521
  H        -0.7718753212       15.0206228806       17.0100624727
  H        -1.6909566586       13.0391398661       15.3250138624
  H        -3.2670914714       13.1381759011       14.8452676742
  H        -2.3228606370       14.6302424130       14.6439861802
  C        -2.0104232027       13.6191857744       19.8132930507
  H        -2.6863407521       15.4151279370       19.0120933167
  H        -1.1337294424       15.4884401054       19.3565595677
  C        -2.0798742066       14.0184793816       21.3135024999
  H        -2.9348025942       13.1933910660       19.7060707857
  H        -1.2357253266       12.9203415073       19.5454579203
  C        -1.2511618376       13.0928583497       22.1731737477
  H        -3.1227022902       14.0254104876       21.6638638827
  H        -1.7894715443       15.0504447812       21.3246320112
  C         0.0089486050       13.8390687666       22.6082396835
  H        -1.7580299299       12.7226229631       23.0290883470
  H        -0.8947311645       12.2565211514       21.6162555474
  C         1.0392279477       13.0954665454       23.5102973737
  H         0.5390934365       14.2060208596       21.7367856446
  H        -0.2856804203       14.6638516902       23.1954132998
  C         1.4264910909       11.6480493858       22.8289029636
  C         0.6149839744       12.3373660731       24.7619181190
  C         2.3053815469       13.9389542423       23.7253359717
  C         1.1817887785       10.5554219845       23.5845038844
  C         1.9145763109       11.3174797295       21.5304769116
  C         0.7689999571       11.0021025636       24.8568313495
  C         0.1180621255       12.9629684578       25.8491029793
  H         2.5934849721       14.4213590050       22.7647863765
  H         1.9930986726       14.7734330259       24.3447911644
  C         3.4846880433       13.2028533299       24.5024301666
  S         1.4520639155        9.0607614081       22.7846144075
  C         1.9720675710        9.9399413221       21.3712568530
  H         2.1716439200       12.1128428891       20.8336708633
  C         0.3586852301       10.4024099475       25.9876278968
  H        -0.0301502314       13.9880475648       25.8053184121
  C        -0.1940605495       12.3933856930       27.0088832185
  H         3.6622093596       12.2433560498       24.0983339627
  H         3.1631935796       12.7548543473       25.4738201454
  C         4.8127117936       14.0494824896       24.5595704266
  C         2.5163053831        9.2526067582       20.0885687938
  C        -0.1394796625       11.0466438482       27.1369501060
  H         0.4309653068        9.2988467196       26.0022117069
  C        -0.5654815388       12.8056772550       28.2745204973
  H         5.5062099518       13.6730445519       25.3282284467
  H         4.5643884060       15.0173470609       24.9728832066
  C         5.4621162245       14.1570720191       23.1491203417
  C         2.5295793758        7.8425196576       19.8855559735
  C         3.0897419471       10.1031869651       19.0066143934
  C        -0.4901808878       10.4394153980       28.4288993209
  C        -0.7983481722       11.7614580270       29.0665608237
  S        -1.0214253102       14.2817634289       28.8658894745
  H         6.1854537135       14.9740491485       23.0387532197
  H         4.6416741931       14.5924443802       22.5282336095
  C         6.0655441944       12.8138082196       22.6521364567
  N         2.2984382121        6.8803139173       20.9025018885
  C         2.7691799818        7.3210675145       18.6311984606
  C         3.4462634936        9.5210551237       17.7587708161
  H         3.3246364935       11.1737941866       19.1765197716
  C         0.4345673138        9.4655478936       29.1662224925
  C        -1.8698166685        9.6677188353       28.2959328270
  C        -1.2791799427       12.1580401629       30.3833686894
  C        -1.4139908071       13.5385797214       30.3981271073
  H         6.9871353117       12.7336813496       23.2023156127
  H         5.4699404362       12.0401000440       22.9426998120
  C         6.2358279958       12.6306129837       21.1328748053
  S         2.2295360928        5.4281696305       20.2020785274
  N         2.6957673412        5.9522857286       18.7387597503
  C         3.1117741054        8.0858596200       17.4978654544
  H         3.6977066167       10.0736830986       16.9195650501
  H         0.5109720294        8.5607192189       28.5785575688
  H        -0.0709784278        9.0431703912       30.0451465194
  C         1.6178388382       10.2238406743       29.7117595625
  H        -1.8381948353        8.7141971272       27.7885967911
  H        -2.2635775491        9.4230893748       29.3073082906
  C        -2.9998528102       10.4779020593       27.6314112469
  H        -1.4063153134       11.4147391889       31.1684943223
  C        -1.6747664935       14.3667173465       31.6259656831
  H         5.2682555672       12.5549184365       20.6256392879
  H         6.7721341049       11.6566561126       20.9074043328
  C         7.0829473905       13.6853218053       20.5034960929
  C         3.3045811069        7.4345804413       16.2704599427
  H         1.9598845091       10.7399792239       28.8576963311
  H         1.3779730975       11.0121781501       30.4286344849
  C         2.6760571691        9.3476506666       30.3654399012
  H        -2.6830781209       11.0535365783       26.7673266400
  H        -3.3785731260       11.3839208775       28.2183318698
  C        -4.3375283798        9.7259250961       27.2753537770
  C        -1.8118708027       15.7560085057       31.7540887675
  C        -1.6996346144       13.6261517924       32.9348185081
  H         6.5587340698       14.5992434308       20.6336345429
  H         8.0249699393       13.7240651860       21.1007774477
  C         7.4668312618       13.4892938904       19.0175192887
  H         3.0858614946        6.3181487590       16.3154854230
  C         3.6227921088        7.8425648054       14.9672652173
  H         2.5306549099        8.4024363533       29.8504167661
  H         2.4458408657        9.0932337148       31.3664910330
  C         4.0999851407        9.8918452467       30.3409444760
  H        -4.0405332317        8.9278342243       26.6240144736
  H        -4.7700394251        9.2752210552       28.1270244944
  C        -5.3354250147       10.5869376612       26.5211487476
  N        -1.4961060621       16.6076068169       30.6858920834
  C        -2.0086255131       16.3914644580       32.9615880339
  C        -2.0569075420       14.2559774802       34.1131694795
  H        -1.4743382850       12.5893215592       32.9733438160
  H         8.2531223187       14.1230506546       18.6677787130
  H         7.9021048710       12.5179832475       18.9945896122
  H         6.5984487772       13.6028048849       18.4032750087
  S         3.8149988495        9.4713336306       14.5259783004
  C         3.7664996142        6.7910950073       13.9178681891
  H         4.1707591987       10.5214504325       29.3984361701
  H         4.3090698528       10.5513720131       31.1905609126
  C         5.1119931953        8.8410132393       30.1505488667
  H        -4.7431645231       11.1384373862       25.7233022494
  H        -5.8313240066       11.2679437636       27.1687573629
  C        -6.5118079980        9.7771905442       26.0040864092
  S        -1.7095665348       18.1751674126       31.2844258825
  N        -2.0281290144       17.8164300010       32.8356240038
  C        -2.2667554592       15.7020530110       34.1716668428
  H        -2.2863248687       13.7148243363       34.9828916086
  C         3.9077576792        8.8656511831       12.9368184732
  N         3.9067303221        7.5047166870       12.7784579206
  O         3.6848764612        5.5547123116       14.0664312115
  H         6.1351375085        9.3184014345       30.0975656958
  H         5.0538419380        8.3477203098       29.1848976918
  C         5.1080287856        7.6223721508       31.1510156813
  H        -6.1694347040        9.0952647821       25.3166373655
  H        -6.9298959786        9.2896769709       26.8736103166
  C        -7.5311656561       10.7581028630       25.3175934657
  C        -2.5053753717       16.4708338926       35.3374498712
  S         4.6131069560        9.8357258293       11.5926070427
  C         3.9163144428        6.8579229644       11.4726226598
  H         5.4223965502        7.9188200200       32.1520087491
  H         4.0742386915        7.3398646462       31.2690975950
  C         5.7999933902        6.3531689322       30.5150778725
  H        -7.0024792786       11.0490281831       24.3816892981
  H        -7.8418407821       11.6520661729       25.9107178656
  C        -8.7752173064        9.9841887753       24.8355897474
  H        -2.1538481654       17.4731490918       35.2554749779
  C        -2.9914829947       16.0879529710       36.5583003764
  H         4.5534001642        7.3340732763       10.6952064118
  H         4.3330164035        5.8997086321       11.5763153601
  C         2.4826657930        6.6775655845       10.9378956145
  H         6.5807879856        6.7594409439       29.8346507562
  H         5.1471835143        5.7580790003       29.8434429799
  C         6.3557434076        5.4017761023       31.6614466052
  H        -9.3157115160       10.6143762448       24.1043721308
  H        -8.5529968505        9.2170625402       24.1249157813
  C        -9.8087554056        9.5846031039       25.8297421731
  S        -3.5366848818       14.5464463326       37.0065014332
  C        -3.0823258436       17.1553899205       37.5940301289
  H         2.4845297035        6.5401244980        9.7954436305
  H         2.0814367471        5.7554341022       11.3798841291
  H         1.7593783401        7.3966302359       11.1910107323
  H         6.5544423001        4.3786209613       31.3620963513
  H         5.4721123548        5.2577909523       32.3149396008
  H         7.2102542694        5.8464075053       32.2060332402
  H        -9.3968668952        8.9739508438       26.6153396821
  H       -10.6392976457        9.0722589317       25.3526490001
  H       -10.2894508128       10.4852168578       26.2113241136
  C        -3.6527576559       15.2001267054       38.6815651040
  N        -3.4794738309       16.6019880247       38.7358303049
  O        -2.7645665750       18.3338068833       37.4184996010
  S        -4.4957310140       14.3990330424       39.9674274320
  C        -3.3989604845       17.3932804365       39.9165050725
  H        -3.6497149604       18.4555958883       39.7517041624
  H        -4.0457963334       17.0967659280       40.7108209379
  C        -1.9987553836       17.3889867275       40.5447141269
  H        -1.7436299660       16.3573054855       40.7529698490
  H        -1.3543652945       17.7306946034       39.7469350174
  H        -1.8453862179       18.0940776528       41.3226855609
