352
i=
  H         3.8072649888        0.7646100308       12.1992957069
  C         3.3977871060        1.7440933356       12.3767780251
  H         4.1806261473        2.4186453544       12.5479442416
  C         2.5986191423        1.9608912229       11.0208842161
  C         2.5271676223        1.7963569799       13.6490517978
  C         3.4164997000        2.3421154729        9.7427494184
  H         1.9271379127        2.7686296950       11.2688458615
  H         1.8627911833        1.0735249636       10.8238776139
  H         1.6606662487        2.4232087004       13.4579108032
  H         3.0623462023        2.2807633769       14.3893207510
  H         2.2516992600        0.7618580893       13.9650275586
  C         4.3301119253        1.2672442940        9.3175049873
  H         2.7529183183        2.6112013466        8.8570462301
  H         3.9250104028        3.2728222078        9.9680148341
  C         5.2064199801        1.6503784288        8.1347558200
  H         3.6835901366        0.4414658234        9.0119647215
  H         4.9243704013        1.0425116151       10.2543608362
  C         6.4711581890        2.3910946528        8.4126519344
  H         4.5625077188        2.2702344274        7.5432245586
  H         5.3632633304        0.7781675029        7.5019374005
  C         7.6700730477        1.5821821049        9.0692442431
  H         6.8251807175        2.7691013649        7.4440729454
  H         6.1965539784        3.1625598753        9.0920998494
  C         8.9421151886        2.5502765379        9.2083633748
  H         7.8767829267        0.7719725224        8.2933503108
  H         7.4418879269        1.1385183986        9.9810720975
  C         8.5722815539        3.8611686374        9.9084603610
  C         9.3386076573        3.2786135485        7.9586838220
  C        10.1175252189        1.8339090578        9.7983423363
  C         8.7515168088        4.9776201210        9.1112457542
  C         8.1370492845        4.1834253493       11.2171371668
  C         9.1774074719        4.6075100825        7.8709446120
  C         9.8209079608        2.7430670191        6.7613045529
  H         9.8292697345        1.3033707059       10.6995872442
  H        10.5338699359        1.2354727585        9.1332389975
  C        11.2610366487        2.8331464006       10.2375690923
  S         8.2327752060        6.4477514447        9.8120878479
  C         7.9401378334        5.5691667883       11.2902518970
  H         7.9408643206        3.3295170578       11.9088745704
  C         9.4646059871        5.2319204297        6.7208699235
  H        10.0807235981        1.6862766404        6.7081199130
  C        10.1445196385        3.3763073639        5.6348400279
  H        10.8801869540        3.6983275555       10.6577815815
  H        11.8232295179        2.9823615042        9.2899375902
  C        12.2980110357        2.3700410769       11.2957727888
  C         7.5609826230        6.2258634905       12.5434871720
  C         9.9363645629        4.7123989588        5.5347696406
  H         9.2859595658        6.3087029255        6.6534319323
  C        10.6847528082        2.9941784998        4.4048015997
  H        13.0650327104        3.1609713455       11.4005622791
  H        12.7618388435        1.4731637047       10.8246269581
  C        11.6332208040        2.0073258187       12.6596749347
  C         7.7037337161        7.6172566638       12.8628428816
  C         7.0710831635        5.4043324429       13.6168626066
  C        10.3262451820        5.4544071132        4.2600092835
  C        10.6960557474        4.1325941866        3.5629642238
  S        11.1373975991        1.5873295394        3.6466653818
  H        10.9102504376        2.9206265149       12.8316898500
  H        11.0728488625        1.0939383954       12.5452630658
  C        12.8129329310        1.8994684129       13.6832272470
  N         8.0194514323        8.6813977742       11.9512144407
  C         7.4666604392        8.1858964165       14.0762400578
  C         6.8224312232        5.9996835228       14.8370236798
  H         6.7396557521        4.4154948737       13.4344697967
  C        11.6002576336        6.2981012379        4.4971349516
  C         9.1534835700        6.1501790399        3.5847501590
  C        10.9606303675        3.7623724555        2.2077177154
  C        11.2848129808        2.3994082391        2.1339523363
  H        13.2265894399        2.8857936156       13.8217080100
  H        13.5856887833        1.2916022956       13.2301376134
  C        12.3351572611        1.4681578431       15.0833514900
  S         8.0735234053       10.1180853704       12.6998521545
  N         7.5573881787        9.5507754179       14.1400782394
  C         6.9757670564        7.4287433070       15.1202215351
  H         6.2966164308        5.3806150425       15.5539859409
  H        11.3800909281        7.1473386302        5.1473565139
  H        11.9093688702        6.9066238287        3.6123863872
  C        12.8617788790        5.6153982916        5.1027380522
  H         8.8184843735        6.8067790512        4.4170011227
  H         9.5260413599        6.7807654369        2.7092132332
  C         7.9983056456        5.2255437865        3.1320819136
  H        10.8803844162        4.4081911692        1.3825674704
  C        11.7000212352        1.6398943059        0.9279960470
  H        11.6757977823        2.2925624584       15.3155778404
  H        11.7325063199        0.5340656379       14.9851390385
  C        13.4903860524        1.3344379694       16.0471061885
  C         6.8195316010        8.0331653748       16.4146134768
  H        12.6066412093        5.1836888454        6.0326446044
  H        13.1232017826        4.8903300679        4.3597669436
  C        14.1004169611        6.5420730028        5.2207357494
  H         7.4982128161        4.7741319754        4.0057286439
  H         8.4053275935        4.4091105512        2.5192140263
  C         7.0680093921        5.7822179554        2.1242236144
  C        11.6756627946        0.2279059744        0.7353138304
  C        12.1219922767        2.4382471190       -0.2153703649
  H        14.3097251150        1.8975457599       15.6456955837
  H        13.8281122629        0.2793099560       15.9657860321
  C        13.3165558582        1.8759357682       17.4516757016
  H         7.0242085503        9.0616692558       16.4057405567
  C         6.4233066131        7.5238867619       17.6198725926
  H        13.7985428424        7.2489779230        5.9773248969
  H        14.1436006927        7.0718817185        4.3388409449
  C        15.5266950387        6.0350886428        5.2962831390
  H         7.5706578377        6.2883036782        1.2781521988
  H         6.4684720847        4.8674081835        1.8173557220
  C         6.1172682844        6.7022058630        2.7608466338
  N        11.3304058824       -0.7868852785        1.6246422486
  C        12.1256119409       -0.3360318223       -0.4589492869
  C        12.3986887919        1.8684486079       -1.4111604706
  H        12.3030971395        3.4866124764       -0.0699831029
  H        12.8827583157        2.9534429915       17.4151824739
  H        14.2754647814        1.8103412150       18.0631726925
  H        12.6002299952        1.1366040621       17.8827283445
  S         6.0325480540        5.9430034696       18.0530465749
  C         6.4027764525        8.4336407177       18.8252599003
  H        15.6505209093        5.2797353515        4.5879439345
  H        16.1833435967        6.8462942850        4.9553791108
  C        15.9043750159        5.5931421235        6.7246045018
  H         6.6013590291        7.5324995419        3.2661589442
  H         5.5055541022        6.1819817696        3.4501362059
  C         5.1978825912        7.3794645254        1.7558504842
  S        11.5779606141       -2.2986350620        0.9739314808
  N        12.0787863948       -1.7519355045       -0.4648138274
  C        12.4926764052        0.4423716840       -1.5788386018
  H        12.7172364215        2.4993064857       -2.2459989382
  C         5.9769336140        6.4910518058       19.7157418561
  N         5.8563069905        7.8465107892       19.9390126549
  O         6.5434375675        9.6518434421       18.6761385039
  H        15.9160869974        6.4890465185        7.3576158434
  H        15.1316531898        4.7802653005        7.0215746566
  C        17.2782120382        4.9623219381        6.7538678230
  H         5.9851490170        8.0254794434        1.2567413858
  H         4.7794029233        6.6832300036        0.9734393216
  C         4.0677952107        8.0730160917        2.5768467752
  C        12.7909359428       -0.3031418303       -2.7555172702
  S         5.7122482937        5.6307627307       21.2335562182
  C         5.6418843726        8.6048008330       21.1891526740
  H        17.3436071222        4.5559936397        7.7835009676
  H        17.3378386526        4.0496304449        6.1293487214
  C        18.4860074729        5.8512031490        6.5631788664
  H         4.4633813864        8.5486862507        3.4845457547
  H         3.3212473191        7.4027372522        2.8926381079
  C         3.4564008470        9.0956685528        1.6335394766
  H        12.4395073076       -1.2906295374       -2.8108443891
  C        13.1688768321        0.0522991081       -4.0209028214
  H         4.9340444814        8.2175507856       21.9120811333
  H         5.3689584830        9.6338491614       20.9100919040
  C         7.0409626234        8.6447385478       21.9471446747
  H        18.9697272443        5.8708900426        7.4810860082
  H        18.1383849896        6.8940703422        6.3119143342
  C        19.4374767552        5.4460274459        5.4707552210
  H         2.3880951576        9.2962829916        1.8834588983
  H         3.9082092475       10.0635459939        1.7370952143
  C         3.6016321326        8.9293917183        0.0799102599
  S        13.8525205039        1.5521576021       -4.6097364273
  C        13.0841659494       -1.0212666519       -5.0873466633
  H         7.8176654459        8.0816931085       21.3818147935
  H         6.9415511242        8.1855630714       22.8831659461
  H         7.3134359016        9.7034155808       22.0334461619
  H        18.8780259822        5.2294118961        4.4880080987
  H        20.1856466142        6.2181719696        5.3134892740
  H        20.0227227435        4.5591286964        5.7520127608
  H         2.9603302829        9.6342411021       -0.4450626275
  H         4.6219987110        9.1354084244       -0.1862036766
  H         3.3970905211        7.9017449092       -0.2685998317
  C        14.1651483039        0.6842205988       -6.1004270798
  N        13.8429807773       -0.6339813929       -6.1274691804
  O        12.7759146661       -2.1946177032       -4.9519805153
  S        14.7782158205        1.4408913039       -7.6824085818
  C        14.1412842898       -1.4409419475       -7.3513360241
  H        14.0662796749       -2.4537972083       -7.0522659494
  H        15.1124149790       -1.3642212771       -7.7901254981
  C        12.9854821632       -1.3013886254       -8.3512000236
  H        12.3730044431       -2.0883116251       -8.1857562731
  H        13.4094689694       -1.2279159630       -9.3379079771
  H        12.3415599767       -0.4070043410       -8.3107151058
  H        -3.4276618953       14.5322900781       16.1265790394
  C        -3.2878975856       13.4450289781       16.0887919954
  H        -4.2053471014       13.0372182218       16.4372964758
  C        -2.1444217701       13.1214730234       16.9362710139
  C        -3.0641473475       13.0223035115       14.6223253846
  C        -2.5029071668       13.4359635546       18.3789637011
  H        -1.7944874623       12.1679489542       16.6893354016
  H        -1.3449571477       13.7530042160       16.5862446561
  H        -2.0413637250       12.7515670915       14.4215975591
  H        -3.6913856037       12.1371023247       14.4950666445
  H        -3.3990347694       13.8158690488       13.9033133453
  C        -1.6668136428       12.9123789822       19.5330041266
  H        -3.4876897937       13.0626742372       18.6091282396
  H        -2.7581673100       14.4559248700       18.4681229574
  C        -2.3023081617       13.0259090434       20.9699116798
  H        -1.5384728576       11.8650959373       19.3442940556
  H        -0.6243979260       13.3196353201       19.5358679779
  C        -1.2720413578       12.4567671979       21.9293318737
  H        -3.3462217861       12.6167509533       21.0379507400
  H        -2.4501936069       14.0430741128       21.2208111784
  C        -0.0285782616       13.2898255095       22.1900065781
  H        -1.8708851949       12.4095283439       22.8800216478
  H        -1.0378315126       11.3945225228       21.7287070012
  C         1.0782651279       12.6055393885       23.0092928104
  H         0.5039987067       13.7016340167       21.2794267384
  H        -0.3636755048       14.1696831476       22.7007922922
  C         1.5630298334       11.2930859192       22.4263153766
  C         0.5333723323       11.9332357904       24.2188647821
  C         2.1459781564       13.5921834755       23.3066202621
  C         1.1800150108       10.2120851999       23.1308004538
  C         2.2346551171       10.8244477980       21.2453323380
  C         0.6229021523       10.5840738001       24.3164031289
  C        -0.0297285409       12.5693118694       25.3634945940
  H         2.4858576431       13.9627151164       22.3205530504
  H         1.7330973306       14.4435226286       23.8010691604
  C         3.4221635605       13.1358432033       24.0957507830
  S         1.5416058913        8.6692886167       22.5428626018
  C         2.2008140772        9.4458948526       21.1880285356
  H         2.5180273898       11.5500246512       20.4925584420
  C         0.1058526152       10.0264547533       25.4264578177
  H        -0.0848852074       13.6205030317       25.2824850543
  C        -0.4265514625       11.9157509614       26.5292961305
  H         3.8323547914       12.3547818539       23.5283085216
  H         3.1564596099       12.5067386549       25.0058679700
  C         4.5199584991       14.1489523029       24.4373273492
  C         2.6078287600        8.7869593757       19.8723481221
  C        -0.4345154729       10.5769998075       26.6123959378
  H         0.2325414683        8.8950111888       25.4394010617
  C        -0.9057885080       12.2532291805       27.7627066266
  H         5.1480192893       13.8182683462       25.2558023891
  H         4.2343670197       15.0828871008       24.8856199308
  C         5.4950128665       14.4687753453       23.3061431716
  C         2.5084350886        7.4252871099       19.6006165334
  C         2.9836798090        9.6466784266       18.7521177083
  C        -0.9359152564        9.8584942137       27.8089787550
  C        -1.1740489098       11.1839104268       28.5393052895
  S        -1.1298013597       13.7436739747       28.5369125942
  H         6.2806073637       15.0144766173       23.8332300907
  H         4.9809044054       15.1065268411       22.6141435958
  C         6.2376420072       13.2791568332       22.6905989159
  N         2.2030036514        6.4106085550       20.5008046418
  C         2.7552860178        6.8984265891       18.3367257647
  C         3.1263703838        9.1632190135       17.4610442672
  H         3.0990824402       10.7558372029       18.8493735270
  C         0.2256667751        9.0613807684       28.4550151232
  C        -2.2218519122        9.1006616748       27.6126564737
  C        -1.4909007731       11.5319962553       29.8579284548
  C        -1.5870576356       12.9234467114       29.9555752837
  H         7.1834925921       13.6868291098       22.5943585497
  H         6.3242866048       12.5340111809       23.4880409797
  C         5.6506124131       12.6352881020       21.4758763606
  S         2.0986808420        5.0520262083       19.7395360772
  N         2.7163435321        5.4897219007       18.2624281555
  C         3.1377608046        7.6806531963       17.1733555772
  H         3.2492896029        9.8498195089       16.5720769654
  H         0.6296099378        8.4017802554       27.6852095470
  H        -0.1161801003        8.3715954028       29.1845798890
  C         1.4239819761        9.8325973352       28.9586297887
  H        -2.1204163348        8.3989204645       26.7808037151
  H        -2.5190243109        8.4909926283       28.4565100759
  C        -3.3740480530       10.0753459282       27.2969089885
  H        -1.6948193696       10.6926614828       30.5371492645
  C        -1.8650838604       13.5867239838       31.2963466603
  H         4.5718938252       12.5338016725       21.5005559075
  H         6.0413723867       11.7058846890       21.5091678613
  C         5.9215322485       13.2690322666       20.1144909046
  C         3.2551759271        6.9950978533       15.9549042204
  H         1.9118852918       10.3771619175       28.1704803432
  H         1.1688964423       10.5318054944       29.7828923519
  C         2.4597449344        8.8688173675       29.4777780556
  H        -3.0743559542       10.7908394802       26.5291177614
  H        -3.6080291038       10.7630231578       28.0639686643
  C        -4.6533059985        9.2943213085       26.9373246068
  C        -2.0357286644       14.9955197306       31.4793005772
  C        -1.9972336846       12.7957757730       32.5762747694
  H         5.1311832473       12.8467835674       19.4761056038
  H         5.7250885438       14.3455471252       20.2390073841
  C         7.3119484135       12.9046353726       19.5275083148
  H         3.0051297183        5.9819438656       15.8843303577
  C         3.5709266922        7.4200441101       14.6719502121
  H         2.8551856408        8.3722932055       28.6016002489
  H         2.1238757826        8.0353692436       30.0363834114
  C         3.5875374431        9.6776210955       30.1261164990
  H        -4.5704913811        9.0188202260       25.9100083728
  H        -4.7861531451        8.3180203067       27.3921075133
  C        -5.8362131351       10.1537180399       27.1336066327
  N        -2.0016359455       15.9369350502       30.4765927046
  C        -2.2544910182       15.5728636823       32.6926929772
  C        -2.1482652501       13.4078906139       33.8422313754
  H        -1.8910604328       11.7108376316       32.4978305218
  H         7.2128640488       12.3228317818       18.6208948481
  H         7.9253962290       13.7881290603       19.3196743015
  H         7.7757793437       12.3569180911       20.2894592982
  S         3.9778868173        9.0633617799       14.0880421079
  C         3.6645439037        6.4093518712       13.6278593772
  H         3.6085663340       10.6746035445       29.6839610571
  H         3.4553401540        9.9580802779       31.0935038572
  C         4.9342080129        8.9285291381       29.8521858075
  H        -5.6321474485       11.1502849871       26.6518216972
  H        -5.9114389463       10.2736922723       28.2209441886
  C        -7.1239444535        9.6084822794       26.4699900442
  S        -1.9659445034       17.4185937904       31.0941346012
  N        -2.3068812547       16.9913526853       32.5808374434
  C        -2.4097890497       14.8523117068       33.9103463631
  H        -2.2035051776       12.7480984698       34.7076782786
  C         4.1155353487        8.3521365065       12.4659252730
  N         3.9852467817        6.9872520537       12.4556524105
  O         3.7278727427        5.1771984160       13.8439226615
  H         5.6297473402        9.7239736492       30.0635572795
  H         5.0557480284        8.6340341408       28.8682409340
  C         5.1845532790        7.6932568444       30.6713311828
  H        -6.9897014459        8.5727122560       26.1506221760
  H        -7.9188150998        9.5610926755       27.1629220323
  C        -7.6510534489       10.4444456827       25.3279425897
  C        -2.6463182421       15.5614898434       35.1447395266
  S         4.7744538570        9.2410548402       11.0995811580
  C         3.9944433062        6.1724491389       11.2740997386
  H         5.4149197382        7.7461586162       31.7125673861
  H         4.2299018315        7.1227548959       30.7140212596
  C         6.0611935147        6.6694432171       29.9542376316
  H        -6.9385781598       10.4916390193       24.5213957356
  H        -7.7638823110       11.5476382249       25.5624038916
  C        -8.9426745040        9.8465252362       24.6364447221
  H        -2.5097612497       16.6541972907       35.0216630581
  C        -3.3239056456       15.0813990776       36.2448929144
  H         4.7105777545        6.5430704370       10.6205892997
  H         4.5209809685        5.2100232244       11.4857247575
  C         2.6465895717        5.8934437504       10.7362589416
  H         6.7470830951        7.2096767981       29.2768552300
  H         5.4074812245        6.0423544249       29.2479330663
  C         6.8048834949        5.7818908127       30.8554470551
  H        -9.1668225470       10.4547190150       23.7828986161
  H        -8.7229934798        8.8896197067       24.2408330164
  C       -10.1741163828        9.5955932864       25.5968609419
  S        -3.8733315295       13.4405550441       36.6808377809
  C        -3.5578921312       16.0921206889       37.2979125209
  H         2.6070737050        5.2205066270        9.8674968305
  H         2.0740874314        5.3066303755       11.4522804345
  H         2.2142199133        6.8979657983       10.5575441561
  H         7.8432568064        6.0552642808       30.7616426029
  H         6.8062861969        4.6903111301       30.6846569834
  H         6.5173642471        5.8549135798       31.9194774064
  H       -10.9926314396        9.2003020409       24.9788087169
  H       -10.6852767379       10.4834752796       25.9644919433
  H        -9.9095375235        8.9820644280       26.5002208897
  C        -4.5419294519       14.1787774668       38.1442215580
  N        -4.3104906319       15.5158644654       38.2730168079
  O        -3.1523273750       17.2531292013       37.3036141643
  S        -5.2242468523       13.2452367725       39.5502799723
  C        -4.7162302117       16.2338408873       39.4426923283
  H        -4.7648051635       17.2906086119       39.1669097322
  H        -5.6648487380       15.8447950070       39.7166303490
  C        -3.5618930406       16.0976687224       40.4809263071
  H        -3.5398598636       16.9751637232       41.1030361421
  H        -3.5743333140       15.1879417501       41.0969725290
  H        -2.5440661736       16.1884822663       40.1933086091
