352
i=
  H         3.6481319547        0.9432102180       12.1008794956
  C         3.8734058207        1.9574672063       12.4584829383
  H         4.9093808406        2.0021337590       12.7295341337
  C         3.4652335091        3.0120589746       11.4593973804
  C         3.1469085271        2.2438652888       13.7721673383
  C         4.4436196271        3.2080857128       10.3132415178
  H         3.3627697143        4.0271209037       11.9516848619
  H         2.4696652003        2.7801965929       11.1169700993
  H         3.8587716059        2.7149198419       14.5200844600
  H         2.6621849609        1.3075732199       14.1854159309
  H         2.4231960515        2.9904850989       13.5920483126
  C         4.7250253141        1.7765987739        9.6648186251
  H         4.0453133392        3.7811144888        9.5041915614
  H         5.3374085535        3.6908513108       10.7218757835
  C         5.4610772237        1.9346584369        8.3295638344
  H         3.8650749373        1.1305616108        9.4139851389
  H         5.4130723955        1.2257255318       10.2915744452
  C         6.7751820947        2.6509394790        8.3727202598
  H         4.7389368733        2.2269438020        7.6065544266
  H         5.7031255196        0.9205674265        8.0285353897
  C         7.8815853045        1.9771859909        9.0655591103
  H         7.1235502134        2.9182451981        7.3571472573
  H         6.4591637560        3.5766328316        8.7960379099
  C         9.0766524546        2.8827456613        9.3391637675
  H         8.1493952661        1.1855323626        8.3848610500
  H         7.5285081244        1.6428830477       10.0629239823
  C         8.7752440820        4.2655966155        9.9673084615
  C         9.5011859197        3.5454375087        8.0388432205
  C        10.2899374095        2.1553059106        9.9861852792
  C         9.1473564908        5.2937423368        9.1488955279
  C         8.3543857970        4.6106745075       11.2509431402
  C         9.5980259641        4.8708968282        7.9481913573
  C         9.8286242064        2.9541922982        6.8293792610
  H         9.8420771878        1.7649700273       10.9239622197
  H        10.4449779131        1.3917215286        9.2335971792
  C        11.6600680113        2.9109619020       10.1094770009
  S         8.8218867182        6.8015176544        9.9264354935
  C         8.2077804085        5.9753797161       11.2846672110
  H         8.1380255334        3.8720365650       11.9724042957
  C        10.0735194051        5.4853364127        6.8699467027
  H         9.7772911149        1.8760744519        6.8032180387
  C        10.2173908288        3.5697120519        5.6989838792
  H        11.5587725944        3.9633407343       10.3529020420
  H        12.0469189070        2.9270141651        9.0510332396
  C        12.6586365560        2.3500626742       11.1650352316
  C         7.8191515751        6.7056028877       12.4673797361
  C        10.3674817965        4.8742832246        5.6720679512
  H        10.1063543468        6.5395119030        6.9355314857
  C        10.8117798199        3.1526085613        4.5011716442
  H        13.6527868782        2.7949835304       11.0259792224
  H        12.8682943369        1.2579034838       11.1128259538
  C        12.3062213253        2.9119940820       12.5864674286
  C         7.8694644575        8.0727517458       12.7683974610
  C         7.3939783141        5.8692387126       13.6213184807
  C        10.9164701995        5.6135241581        4.4483495609
  C        11.1849269527        4.2604636000        3.7213847754
  S        11.1914857037        1.6235309139        3.8626435343
  H        12.7314565881        3.7982093931       12.8748559394
  H        11.2184076119        3.1198945415       12.5828762964
  C        12.6054097535        1.9757259952       13.7181054005
  N         8.1140615857        9.0324178862       11.7820451914
  C         7.5360661553        8.6561602323       13.9801785759
  C         7.2232307266        6.4621896531       14.8037986830
  H         7.5926776603        4.8276326512       13.5974910786
  C        12.2241250795        6.3735441060        4.8192793718
  C         9.9194368435        6.5244219457        3.6950395674
  C        11.7459136273        3.8161716962        2.5230001037
  C        11.7055637739        2.4721306578        2.4597172746
  H        13.5707045380        1.6590651168       13.3964473781
  H        11.9087625177        1.1053312763       13.6842140468
  C        12.7180282084        2.6890650040       14.9988625230
  S         8.1504539484       10.5031471408       12.4427355303
  N         7.7354429931        9.9991701023       13.9781887396
  C         7.2125042258        7.9169854998       15.1364053195
  H         7.1293490754        5.8399136625       15.6411634796
  H        11.9736509872        7.1535603353        5.5127844907
  H        12.6485570976        6.8832777403        3.9335278929
  C        13.3293856931        5.5938557161        5.4330879303
  H         9.4890692648        7.3242597177        4.3900931318
  H        10.4714728373        7.0362198349        2.9232147853
  C         8.8436057744        5.6723468412        2.9769943291
  H        12.0226869234        4.4874062220        1.7370409238
  C        11.9877744697        1.6778645178        1.2093881264
  H        13.6599568782        3.2106034206       14.9333736210
  H        12.0108642436        3.4643927626       15.1939986484
  C        12.7075032092        1.7305772057       16.1523354822
  C         6.9989817747        8.5526167577       16.3371062636
  H        12.8370439150        5.2375492655        6.3419304853
  H        13.5033778242        4.6394130711        4.9467925883
  C        14.5733370899        6.3951325515        5.7992256222
  H         8.5816440507        4.7693662931        3.6254450316
  H         9.3014143552        5.1463503177        2.1036466498
  C         7.5756329025        6.4647539365        2.5820452489
  C        11.8441862663        0.2521620177        1.0328231430
  C        12.2532400615        2.4004496247       -0.0065331305
  H        13.4298107515        0.9631221857       15.9562718076
  H        11.7913408315        1.1718008791       16.1065802229
  C        12.9535703077        2.4005309558       17.5009931510
  H         6.9747699431        9.5891610076       16.2741565756
  C         6.6494399103        8.1818221841       17.6520095472
  H        14.2056157605        7.3215048766        6.2479111264
  H        15.0544840205        6.7810633291        4.8504851882
  C        15.5917946099        5.6199417177        6.6817956743
  H         7.2956205501        6.8088798810        3.5538156131
  H         7.9172957185        7.3055538072        1.9279786699
  C         6.5360915157        5.6702858705        1.8829678662
  N        11.4380653742       -0.6365144618        1.9792034785
  C        12.0379153091       -0.3612868674       -0.2148107465
  C        12.3238019220        1.7986005580       -1.2516710014
  H        12.2540659970        3.4665767347        0.0005491342
  H        12.0972704126        2.4868612924       18.1962538484
  H        13.2941478863        3.4588290242       17.3908434727
  H        13.6828358104        1.9024762063       18.0247561626
  S         6.2961944128        6.5942153205       18.2083485628
  C         6.6130022527        9.2758093106       18.6487952994
  H        15.1244154202        5.2816346135        7.6947766733
  H        15.9669548531        4.7856679141        6.1152641420
  C        16.8978259615        6.4552229614        6.9823448886
  H         5.9324700182        5.1145330439        2.6168149049
  H         7.0681507246        4.8632541557        1.3510356265
  C         5.6266104726        6.4068097776        0.9534492715
  S        11.6322961362       -2.1528401892        1.4803165862
  N        12.0539486928       -1.7475543162       -0.0453527470
  C        12.3313032602        0.3499649376       -1.4203233823
  H        12.3896707971        2.4780782611       -2.1530842033
  C         6.1492464853        7.3728488510       19.7864978739
  N         6.3715977527        8.7414204074       19.8121467113
  O         7.0640089371       10.4125813071       18.4102539986
  H        17.3095305791        7.0618223489        6.1237401566
  H        16.6419839272        7.1388624064        7.7545358927
  C        18.0379346143        5.4560460036        7.3656632817
  H         6.2410489283        6.9388926271        0.3203071459
  H         4.9196673807        5.7298287991        0.3925232930
  C         4.7399840515        7.4548195141        1.7294269549
  C        12.4770202726       -0.3685278078       -2.6291043696
  S         5.6595960561        6.6429404421       21.3153177512
  C         6.5684406849        9.5208229681       20.9975975247
  H        17.7605401859        4.9544740649        8.2388264463
  H        18.0845448339        4.6383865895        6.6928349934
  C        19.3544992065        6.0907591998        7.5216978117
  H         5.2082444037        7.8007802996        2.7170674158
  H         3.8377257884        6.9384358301        2.0110405902
  C         4.4520224306        8.5328309425        0.7130763927
  H        12.3283032557       -1.4849587608       -2.4114988048
  C        13.0965650280       -0.1448342697       -3.8352261404
  H         6.0242313728        9.0871251359       21.8388308458
  H         5.9999971865       10.4548418272       20.7316304707
  C         8.0544528790        9.6567564584       21.4812215084
  H        19.8524412971        5.7818379771        8.4574164618
  H        19.0974731942        7.1283199648        7.6439376782
  C        20.2301326077        6.0211867026        6.2418037726
  H         5.3579557327        9.1412634556        0.6026863267
  H         4.3786165981        8.1161314072       -0.2489461808
  C         3.4427772921        9.5402853709        1.1051703153
  S        13.5577054517        1.4078498957       -4.4191954571
  C        13.2682388800       -1.3020588126       -4.8143154384
  H         8.1343608244        9.1674128074       22.4174626781
  H         8.2465879781       10.7127180144       21.6906245400
  H         8.7930571094        9.2265602718       20.7753039286
  H        20.6138007709        5.0194487765        6.0052356021
  H        19.7617745196        6.4329236579        5.3788555609
  H        21.1336198752        6.7227822206        6.2968533823
  H         3.8460688267       10.5487889077        1.3894480105
  H         2.7315901440        9.6148960827        0.3149925804
  H         2.8317323320        9.2735832219        1.9630541553
  C        14.0297164376        0.5532978794       -5.9148255689
  N        13.7729672199       -0.7354730137       -5.9777382856
  O        12.9756898715       -2.4570091706       -4.5832123703
  S        14.8909270921        1.3475503304       -7.1780857681
  C        14.0502279381       -1.6025548880       -7.1571600807
  H        13.9234367307       -2.6682598654       -6.8343247513
  H        14.9799549549       -1.4768339902       -7.6353336675
  C        13.0169420813       -1.2361493649       -8.2502888360
  H        12.6770378000       -2.1160451735       -8.7623073473
  H        13.3569309111       -0.5639199184       -9.0378361048
  H        12.0894362308       -0.8352570714       -7.7963010788
  H        -0.4456030222       13.2584844410       16.9728706426
  C        -1.0749087152       13.9483024992       16.4228456440
  H        -0.4025258611       14.5417045552       15.8359512018
  C        -1.8682584172       14.6684573510       17.6009431285
  C        -2.0439325656       13.3064919615       15.3561085562
  C        -2.3339403225       13.6806034973       18.7242818200
  H        -1.2690983282       15.3712196864       18.1208284574
  H        -2.7271734458       15.1463697408       17.1928757986
  H        -2.9644736438       13.8536232274       15.2818382368
  H        -1.4563681897       13.3358438723       14.4209421750
  H        -2.3327833549       12.3023060404       15.4470105633
  C        -1.1961771221       13.2782281255       19.7428433094
  H        -2.6710395926       12.7988007862       18.2726478298
  H        -3.0241408858       14.2455940934       19.2556246486
  C        -1.8013028758       13.1072841412       21.1315298584
  H        -0.7541741556       12.3268359873       19.3294433271
  H        -0.3239253165       13.9779463035       19.7382117095
  C        -0.8321947053       12.6401148706       22.1986397557
  H        -2.5508562769       12.3425314386       21.1194045166
  H        -2.2757632288       13.9434888099       21.4955184122
  C         0.2376201882       13.7057863666       22.6220271570
  H        -1.2664523953       12.3674284874       23.1138966444
  H        -0.3051770714       11.8059425578       21.8400208440
  C         1.4520213795       13.0832242083       23.3877464905
  H         0.7087270192       14.1436117161       21.8113477847
  H         0.0034589838       14.5590145714       23.3363400816
  C         1.9596319779       11.8094011656       22.6656138433
  C         1.0746213260       12.3337420868       24.6497713567
  C         2.6168379807       14.1331830061       23.5040375584
  C         1.7753631294       10.6866885386       23.4699370276
  C         2.3635871445       11.4910565832       21.4025175271
  C         1.2785850907       11.0001095642       24.7347677161
  C         0.4960711037       12.9018228141       25.8199234418
  H         2.7450118633       14.6968460968       22.5353438541
  H         2.3224032713       14.8040317387       24.2620858023
  C         3.9478869002       13.5551696893       24.0407333317
  S         2.1603180214        9.2296345667       22.7346671993
  C         2.5081371304       10.1370605154       21.2281632577
  H         2.3743973063       12.2962104003       20.6135616068
  C         0.9137493237       10.2906076116       25.8539899429
  H         0.2156725854       13.9175897675       25.7830965221
  C         0.1808360201       12.1686747907       26.9211936452
  H         4.3453248858       12.8753712357       23.3115358142
  H         3.8013326495       12.8826949083       24.9192282526
  C         4.9649835580       14.5930518824       24.3012647417
  C         2.8840370694        9.4390330561       19.9342180732
  C         0.3264131099       10.8265549880       26.9315607625
  H         1.1134667250        9.2505739029       25.9486576617
  C        -0.2827924540       12.4389833835       28.1671546648
  H         5.6908169024       14.0843987889       24.9249312108
  H         4.5718026503       15.4039680323       24.9154195935
  C         5.4765363498       15.2616393586       23.0411836392
  C         2.7441150289        8.0772361714       19.6930113461
  C         3.4093780349       10.3789493142       18.9439489171
  C        -0.0661966566       10.0280205734       28.0894705220
  C        -0.5394234849       11.2692475518       28.8656285654
  S        -0.6900831262       13.8690683281       28.9759107612
  H         5.9854781044       16.1782914268       23.2231866845
  H         4.6777197654       15.5530701651       22.3449682810
  C         6.3475375506       14.3576923635       22.1255760739
  N         2.2486504184        7.1156913373       20.5604580227
  C         2.9261190411        7.5684242318       18.4254484366
  C         3.7181998502        9.8038336646       17.6690788678
  H         3.7065964171       11.3705046900       19.2247782403
  C         1.1838098093        9.3792080236       28.7137991886
  C        -1.1568129959        8.9730047137       27.7637514040
  C        -1.0077493466       11.5319854124       30.1379323165
  C        -1.1002926815       12.8796066275       30.3440046517
  H         7.3719393386       14.6972090582       22.1427480368
  H         6.4407308663       13.3902182724       22.6020208891
  C         5.8061636768       14.2381301284       20.7780202176
  S         2.2193655362        5.6973720832       19.7857228319
  N         2.6527335513        6.2015985248       18.3256867178
  C         3.3461200552        8.3518773656       17.3183210586
  H         4.2612214636       10.4669265901       17.0294499790
  H         1.6769006866        8.6008297410       28.1086285586
  H         0.8774172922        8.8241452477       29.5354936288
  C         2.2944832483       10.3965948149       29.1500680652
  H        -0.7730644162        8.2858375068       27.0404229211
  H        -1.3400486711        8.4141360265       28.6830992893
  C        -2.4196208283        9.6588469324       27.1524138563
  H        -1.1950964355       10.7327300742       30.8572362958
  C        -1.4077189662       13.5159642264       31.6460984170
  H         5.5320286132       15.2332205289       20.4181996819
  H         4.8319535906       13.6715358796       20.9486761507
  C         6.6820937489       13.4873592988       19.7932764483
  C         3.4739956882        7.7011010470       16.0753694409
  H         2.7693435952       11.0432775796       28.3857802449
  H         1.8236706061       11.1246667455       29.8287649215
  C         3.5306136429        9.7226681020       29.7899236976
  H        -2.1691550770        9.9800399596       26.1209063431
  H        -2.7263827407       10.5051018891       27.6939584209
  C        -3.5046944193        8.5932120427       26.9654959456
  C        -1.4572151629       14.9212710084       31.8603005973
  C        -1.8075925915       12.7396228773       32.7685700087
  H         7.5589092982       13.1279489589       20.3394722139
  H         6.1493257254       12.5068316534       19.5123750015
  C         6.9161239704       14.3006244157       18.4956199195
  H         3.2894578957        6.6300306936       16.0524191612
  C         3.8386469050        8.1332468610       14.8085141031
  H         4.0964258933        9.0860114336       29.0925450645
  H         3.2224606402        9.0721555845       30.5870418730
  C         4.4503431733       10.7577655041       30.4011527878
  H        -3.2532650370        7.9618107541       26.1395259757
  H        -3.5983817092        7.9475006865       27.8056071503
  C        -4.8817206527        9.1801994186       26.9457342426
  N        -1.2469524092       15.8633529006       30.8932154219
  C        -1.8430866706       15.4848468598       33.0561119325
  C        -2.1119734496       13.2870039501       34.0026403589
  H        -1.7493078657       11.6773120889       32.7213055153
  H         7.3267767028       15.3414971245       18.7432242291
  H         7.6857202393       13.6946488505       17.9927858755
  H         6.1373245578       14.4959245080       17.8538743582
  S         4.2584121026        9.7253913651       14.2206121474
  C         3.9011310859        7.0653286181       13.7048870331
  H         4.3905046110       11.6574351003       29.7818665866
  H         4.1279419193       11.0879288844       31.3530622113
  C         5.8455287949       10.2081521559       30.3799754534
  H        -4.9477046599        9.9166179722       27.7859227302
  H        -5.6898201673        8.4054921188       26.9935938822
  C        -5.0437236473        9.9320311649       25.5857908505
  S        -1.4276440122       17.3261389312       31.4927372289
  N        -1.9026891705       16.9012857108       32.9969072758
  C        -2.1858499399       14.7234020794       34.2201204190
  H        -2.3499614788       12.6182953072       34.7794418933
  C         4.2663101874        9.0242146347       12.5831015276
  N         4.2366313467        7.6496852985       12.5701604792
  O         3.7671245835        5.8361403777       13.8984686341
  H         6.5457845105       10.9128569900       30.7648077249
  H         6.1250848855       10.0421571077       29.3714271471
  C         6.1322236565        8.8407336399       31.1910472411
  H        -4.2618318380       10.6881570832       25.5104167525
  H        -4.8942639512        9.2189603370       24.6991274336
  C        -6.3275098867       10.7806888602       25.5712318696
  C        -2.3991965177       15.4961621027       35.3918019393
  S         4.8895463112        9.9886763260       11.2143893373
  C         4.5272269877        6.8739852362       11.3754852675
  H         6.9692102693        9.0805607815       31.8878490615
  H         5.2705528911        8.6876441817       31.7992922125
  C         6.4002979853        7.5316083764       30.3401292456
  H        -6.4102677979       11.3644124211       24.6864134882
  H        -6.3715825573       11.4590337976       26.4739533045
  C        -7.5641283629        9.8728937741       25.6428713312
  H        -2.1748905939       16.5123668028       35.3317955709
  C        -2.9729841064       15.1581067377       36.5745691945
  H         5.3165616084        7.3202886356       10.8033937322
  H         4.7647287583        5.8313152757       11.6976202964
  C         3.2755857893        6.9976907822       10.5193304171
  H         7.2328617043        7.6347560216       29.6553387061
  H         5.6046986792        7.4138718822       29.6306608140
  C         6.6214827318        6.3206335458       31.2587614561
  H        -7.3210224323        8.8915673721       25.2460092188
  H        -7.8801283962        9.8279620186       26.7025773380
  C        -8.7649694073       10.3687346165       24.8468562296
  S        -3.6129170154       13.6512474557       37.0202151466
  C        -3.0509341247       16.2404105758       37.5613422760
  H         3.0665441216        6.1189351179        9.9753620197
  H         2.4925677179        7.3105791500       11.1922771855
  H         3.3622022356        7.8747043477        9.8900384542
  H         6.2010955199        6.4670305438       32.2464886227
  H         7.6566658117        6.2060997052       31.4347132882
  H         6.2322774686        5.3416616217       30.7802061892
  H        -8.4986684109       10.5521167969       23.7974575856
  H        -9.1450270445       11.2415539829       25.3377217184
  H        -9.5418092378        9.6196325790       24.7251888230
  C        -4.1331963766       14.5519216862       38.5005637755
  N        -3.7839643893       15.8422348979       38.6158598844
  O        -2.5001959321       17.3336075325       37.4895067235
  S        -5.1200987055       13.7755657256       39.7216510181
  C        -4.0243836743       16.6599261567       39.8017573420
  H        -4.0378981776       17.7161001851       39.6748776470
  H        -5.0302709059       16.3489770189       40.1983199334
  C        -2.8861501630       16.4437440314       40.7662303718
  H        -2.7564747198       17.2871345174       41.4148427358
  H        -3.2712393520       15.5966859677       41.3139889931
  H        -1.8474185197       16.3166416396       40.3219211808
