352
i=
  H         2.0548624090        1.6250102326       12.2712677259
  C         3.0268900189        2.0497066483       12.1985676145
  H         3.6455349384        1.1978907006       12.0338498133
  C         3.2035213075        3.2011057675       11.1790530985
  C         3.2140827307        2.5496001392       13.6227199833
  C         4.4589573276        3.0532924606       10.3456856300
  H         3.2498317187        4.1500829013       11.6848423622
  H         2.2798852324        3.2597496741       10.5800305975
  H         2.4063698646        3.1766771855       14.0133381339
  H         4.0969734120        3.1890179655       13.7047693752
  H         3.3072658944        1.6350646054       14.1801169233
  C         4.5358917517        1.7515619119        9.4732391240
  H         4.3835647068        3.9618809066        9.6860370291
  H         5.2768681406        3.1621433233       11.0510625803
  C         5.3079039691        2.0314788976        8.1272651427
  H         3.4944413567        1.3662901055        9.2563750817
  H         5.0096331510        0.9005793306       10.0768076299
  C         6.5952751497        2.8021229682        8.0777675835
  H         4.5590919772        2.5569654279        7.4838391628
  H         5.5700689051        1.0551876367        7.7070561622
  C         7.7884025504        2.1383308041        8.8719547232
  H         6.9228350362        2.8303716408        7.0297870795
  H         6.4611465316        3.8654280718        8.3007932172
  C         9.1135296888        2.9451592218        9.1867709209
  H         8.1630364382        1.2874594112        8.3481691350
  H         7.4689438084        1.7780441075        9.8321338677
  C         8.8586755048        4.2613288724        9.8718846193
  C         9.5753286872        3.6978112961        7.9469632010
  C        10.1327969195        2.1671704757       10.0452988935
  C         9.1184040188        5.4185164504        9.1060530338
  C         8.4150818083        4.6929286264       11.1442069825
  C         9.5824630383        5.0469173894        7.8402082557
  C         9.9349584521        3.0868101468        6.7464921805
  H         9.6877270992        1.8897082552       11.0188743085
  H        10.4404482485        1.2327241005        9.5930577136
  C        11.4266365705        2.8935060805       10.3421674848
  S         8.6174614989        6.9223724889        9.8195233166
  C         8.1755832253        6.0692158188       11.2035791279
  H         8.3209055675        3.9337870085       11.9235262059
  C         9.9497206282        5.6937361204        6.6718316339
  H        10.0141109089        2.0062865143        6.8102716156
  C        10.3650661016        3.6681939735        5.6185095865
  H        11.2339320536        3.8882548674       10.7085225109
  H        11.9670554021        2.9878647922        9.3459740411
  C        12.4305267700        2.0584203962       11.1974395386
  C         7.6916822107        6.7531318572       12.4953339224
  C        10.2960992685        5.0091411975        5.4866397889
  H         9.9675820858        6.7705398064        6.6878253826
  C        10.8523486168        3.2380315868        4.3589192427
  H        13.4092982689        2.4727693375       11.0611268027
  H        12.4927174140        1.0359962306       10.8517195980
  C        12.0303750592        1.9779923042       12.6750234857
  C         7.6423583390        8.1272748825       12.7544305752
  C         7.3718183318        5.8384720559       13.6311746855
  C        10.8596666374        5.6385966263        4.1966674676
  C        11.1877725641        4.3094332627        3.5492682820
  S        11.2162859169        1.6787219219        3.7045900350
  H        11.4792858262        2.8192130984       12.9762568029
  H        11.3468170677        1.1920551720       12.7725219551
  C        13.2232918496        1.8505345934       13.5178246389
  N         7.8814611358        9.1259120224       11.8444390766
  C         7.5977027104        8.6280593420       14.0432457774
  C         6.9603538798        6.3978084219       14.8385114645
  H         7.2680663715        4.8072365284       13.4168128653
  C        12.2131814962        6.3401588176        4.3069805682
  C         9.7533594567        6.4549428198        3.4407993503
  C        11.6190133716        3.8622455761        2.2798463981
  C        11.6794259291        2.5196715191        2.1847022856
  H        13.7241760823        2.7949020726       13.6318958623
  H        14.0657980663        1.2928937113       13.1174547575
  C        13.0155902581        1.1170020399       14.8608142289
  S         8.0437372750       10.5521988788       12.6676954583
  N         7.8601934512       10.0134991871       14.1845411404
  C         7.2412266119        7.8172025623       15.1250861312
  H         6.6331098838        5.7422074089       15.6172450378
  H        12.0737973434        7.3160316260        4.7241585924
  H        12.7018424914        6.4724206027        3.2987699208
  C        13.2519103116        5.5608008051        5.0632278711
  H         9.1247402751        6.8646912776        4.2366630844
  H        10.1998812139        7.1990919669        2.8053873062
  C         8.8435647763        5.7209099387        2.4888061705
  H        11.8201688153        4.6708006754        1.5809961868
  C        12.0187090178        1.7052050611        0.9696095951
  H        12.3656522561        0.2241950950       14.6144032548
  H        13.8734212666        0.7237722281       15.3591906568
  C        12.2024490925        2.0310932963       15.8909611909
  C         7.0827164322        8.4749738243       16.3738319787
  H        12.9042951456        5.2649044682        6.0629698901
  H        13.5251512950        4.6186439160        4.6035090268
  C        14.5562101440        6.2569608994        5.2944675227
  H         8.5865340563        4.7235600483        2.9130090930
  H         9.3611910213        5.3222154853        1.5938240687
  C         7.6127454188        6.5944477641        2.0317047505
  C        11.9991173226        0.2893903646        0.8260251816
  C        12.3107180152        2.4197360786       -0.2888860153
  H        11.3654703076        1.4554764130       16.2629155115
  H        11.8059448366        2.9934955339       15.4473144538
  C        12.8875242120        2.3482511175       17.1795738068
  H         7.3535829698        9.4664920214       16.3996039648
  C         6.7724911374        8.0297462307       17.6457405213
  H        14.3973323287        7.0110722119        6.0408701248
  H        14.9765697244        6.6489489960        4.3727465342
  C        15.5538576914        5.3148842621        5.8751572652
  H         7.1917887065        7.1105417985        2.8510553527
  H         7.9976884033        7.4174875978        1.4330531555
  C         6.5253489172        5.8291336874        1.2522864681
  N        11.6719180305       -0.5959144884        1.8334474731
  C        12.2753212713       -0.3400120467       -0.3646373112
  C        12.6195770286        1.7383674873       -1.4968071303
  H        12.3815718757        3.5043553019       -0.3833953238
  H        14.0096544665        2.5395534082       16.9973641698
  H        12.7415158260        1.4688184086       17.8185144595
  H        12.3816375254        3.2268936589       17.6510935488
  S         6.3974991702        6.4433766346       18.0861697547
  C         6.7575321468        9.0161204861       18.7534311372
  H        15.0826862568        4.5620265950        6.4956280862
  H        16.0246927373        4.8039148069        5.0150334511
  C        16.7037246353        6.1493875473        6.5509273201
  H         6.3078731968        4.8584337408        1.6505470314
  H         6.9913971481        5.7134614448        0.2415907482
  C         5.2314108592        6.7773782106        1.1278420975
  S        11.5055480314       -2.0428270607        1.2166567338
  N        12.0759002542       -1.7161246219       -0.2450653571
  C        12.6738061838        0.2775822301       -1.5879823516
  H        12.7572245448        2.3080228719       -2.3338070993
  C         6.3084240562        7.0477075531       19.6785557157
  N         6.3286922418        8.3755989524       19.8106882668
  O         7.0452573354       10.2002252779       18.6635330988
  H        17.1979424387        6.6844982594        5.7071510151
  H        16.3983228022        6.8638341022        7.2669174939
  C        17.8291180510        5.2250074523        7.0680485216
  H         4.3724437565        6.1292902447        0.8805970343
  H         5.0744009484        7.0999835554        2.1605233741
  C         5.1950544970        7.9875840071        0.2162421321
  C        12.9258180339       -0.4327484033       -2.7561840471
  S         5.7703464816        6.0491965773       21.0974106774
  C         6.3157315507        8.9816535420       21.0529473861
  H        17.5118926213        5.0271526919        8.0777873367
  H        17.8727256076        4.3977868319        6.3723916670
  C        19.1595051232        5.9071657362        7.1084237467
  H         5.0232660938        7.8026894385       -0.8475351852
  H         6.1925984372        8.4228329064        0.3596496683
  C         4.0162688220        9.0384217115        0.4592142853
  H        12.9033750185       -1.4203496892       -2.6140454261
  C        13.4049364066       -0.0756790689       -3.9341650030
  H         5.4849264751        8.5983934878       21.7026484456
  H         6.0625140617       10.0105240553       20.9788042766
  C         7.7084129126        8.9043808927       21.8078884083
  H        19.7454232362        5.4699488626        7.8982936762
  H        18.9142006456        6.9446646851        7.4400766436
  C        19.9507463480        5.9088809224        5.8156213796
  H         3.5449260005        9.1179222936       -0.5481731293
  H         3.2316604589        8.7025974323        1.2299535027
  C         4.4377414098       10.4406863854        0.8317889181
  S        13.9771674435        1.4584279386       -4.4999002837
  C        13.3726051074       -1.1086446598       -5.0318073496
  H         7.4875077883        8.2663748054       22.7033543349
  H         8.0221455409        9.8572025276       22.1596966069
  H         8.5125252390        8.3941909866       21.2580302941
  H        19.4485149935        5.4092838951        4.9825832758
  H        20.2192622089        6.9630135077        5.5140853783
  H        20.9517473258        5.3929950239        5.9353017845
  H         5.1042161889       10.9392082665        0.0913736603
  H         3.6545793554       11.0953343026        1.1463614620
  H         5.1118593308       10.3749216067        1.6725989967
  C        14.1891372285        0.6991268358       -6.0664847816
  N        13.9674853252       -0.6188575859       -6.1583416657
  O        13.0853177960       -2.3241653565       -4.9535169480
  S        14.7461335223        1.5869811870       -7.5372705593
  C        14.1908300881       -1.4226654089       -7.4298050985
  H        14.0911804424       -2.4308001398       -7.0160265188
  H        15.2782283799       -1.2333280196       -7.7719687426
  C        13.1662651024       -1.2260929811       -8.4291945043
  H        12.2424968447       -0.6396538275       -8.0218499646
  H        12.7667522890       -2.2013899573       -8.6305587143
  H        13.4392270901       -0.7428416381       -9.3480436151
  H        -2.5444767512       14.9233410080       16.0482867137
  C        -2.7080391190       13.8631035652       16.2169307038
  H        -3.7772443136       13.9270818899       16.5134939060
  C        -1.6363945961       13.4627095892       17.3317488566
  C        -2.6288103557       13.0006550688       14.9543889911
  C        -1.9925131036       14.0103840487       18.7086520229
  H        -1.7730004737       12.3716329479       17.4331525299
  H        -0.6153684045       13.5256976632       17.0122697067
  H        -1.9313574704       12.2120959093       14.9915950949
  H        -3.5659822258       12.4737197939       14.8078386678
  H        -2.4529727373       13.4683609453       14.0535118445
  C        -1.7227721964       12.8839781347       19.7939693213
  H        -3.0110422963       14.2900447060       18.7927921934
  H        -1.3257816141       14.8818501464       18.8187434128
  C        -2.1498214231       13.4167112753       21.2057038349
  H        -2.3406000586       12.0156306581       19.5492314728
  H        -0.6651313568       12.5472517906       19.7603513120
  C        -1.1587339978       12.9110512733       22.1785071918
  H        -3.1352482912       13.0726789490       21.4528728518
  H        -2.1016054398       14.4828097437       21.2721551900
  C         0.1496974499       13.7921133044       22.2476287141
  H        -1.5421067765       12.9342826019       23.2239860903
  H        -0.9054220728       11.9142980363       21.9548694024
  C         1.3463184069       13.1334533199       23.0122898759
  H         0.4993290295       14.0609968972       21.2396976501
  H         0.0410758237       14.8228591682       22.6808537117
  C         1.6714227537       11.8120806300       22.2805710083
  C         0.9633697622       12.4422825850       24.2881472560
  C         2.6351388668       14.0014963240       23.1450946979
  C         1.4697290280       10.7096081858       23.0768785884
  C         2.1734077038       11.4556191038       21.0354543494
  C         0.9362585480       11.0820303948       24.3375079879
  C         0.5608029988       13.0578396477       25.4812301957
  H         3.0862904986       14.2007868194       22.1970990991
  H         2.3533807393       14.9403987327       23.6542110961
  C         3.7556453831       13.1702806643       23.8548369222
  S         1.9683400274        9.1883197193       22.3264597182
  C         2.4281473509       10.1137838296       20.9162600860
  H         2.2460294122       12.2190522624       20.2648429569
  C         0.5148594300       10.4806173694       25.4488662205
  H         0.6117888610       14.1546407732       25.4121440763
  C         0.2052702774       12.4071536326       26.6124571306
  H         4.1889803935       12.4378955417       23.1370762231
  H         3.2595465412       12.5773598390       24.6588979809
  C         4.9704152316       13.9325164201       24.3716388944
  C         2.8712063174        9.5359845818       19.5813368636
  C         0.1581269807       11.0451771267       26.6782529479
  H         0.4288336995        9.3930226276       25.4462578500
  C        -0.2169399925       12.7626340693       27.8899055591
  H         5.7059388735       13.3636595247       24.9917193907
  H         4.4944296328       14.6002416647       25.0919838868
  C         5.6600395977       14.8009763189       23.2612945242
  C         2.8024517007        8.1510659419       19.2918045766
  C         3.2932682261       10.4279925709       18.4911263143
  C        -0.2584099740       10.2946971846       27.9309534845
  C        -0.4154047348       11.6461798748       28.6832510689
  S        -0.6413829437       14.2658885928       28.5891835773
  H         6.3175258089       15.4628489135       23.8767148969
  H         5.0228354161       15.5241569751       22.8111548849
  C         6.5213778262       14.0278111953       22.2507595263
  N         2.4933648213        7.0706017246       20.1829048994
  C         3.1062939050        7.6886059528       18.0040937779
  C         3.7373772744        9.8945890754       17.3151603342
  H         3.4656345963       11.4518563757       18.6650936611
  C         0.9710891157        9.4476559514       28.4767779209
  C        -1.5968093434        9.5303084821       27.8589554041
  C        -0.7698022787       12.0625032587       29.9750163671
  C        -0.9510249836       13.4177742529       30.0854471827
  H         7.4842804530       14.4606142742       22.2248005702
  H         6.7997253958       13.0348467361       22.6740467438
  C         5.9078423851       13.9136015420       20.8832028678
  S         2.6615445029        5.6902905142       19.3216035637
  N         2.8531023288        6.3027146942       17.8022719607
  C         3.5736074930        8.4903092174       16.9101228125
  H         4.2377598262       10.5659142792       16.6358283635
  H         1.1337943388        8.5895758130       27.8029665997
  H         0.6376075258        9.0192294852       29.4405359682
  C         2.2372661548       10.2151379749       28.7529170499
  H        -1.5861081276        8.6977549231       27.1649514998
  H        -1.8054617913        9.2483171409       28.8604151955
  C        -2.7950668593       10.4130917056       27.3319115507
  H        -0.8809073350       11.2744614731       30.7159223285
  C        -1.3183727248       14.2402655751       31.2609507004
  H         5.5534048055       14.8220320871       20.4215450840
  H         5.0112494419       13.2929890481       20.8982553701
  C         7.0313492135       13.4076921586       19.9739674280
  C         3.7451702467        7.9727338765       15.5651475680
  H         2.6049160434       10.6706833455       27.8097212645
  H         2.0608206004       11.0397588625       29.3773757235
  C         3.2793941641        9.2703445787       29.2670805884
  H        -2.4660250901       11.0938748459       26.5032275693
  H        -3.2013062138       11.0537160753       28.1102486830
  C        -3.8879963434        9.5289115640       26.7490122798
  C        -1.3543776807       15.6275033389       31.3448987405
  C        -1.6004911764       13.4883153985       32.5280311569
  H         7.9968023426       14.0573242653       20.0458229915
  H         7.2873651875       12.3515167800       20.2816618635
  C         6.7080740854       13.3958824392       18.4896260269
  H         3.5317080922        6.9379845762       15.5611611449
  C         4.1273766848        8.4811519765       14.3068648384
  H         3.4741538709        8.6410850880       28.3878357381
  H         2.8386100591        8.5836955536       30.0096197448
  C         4.5806253477        9.9825299045       29.7067640975
  H        -3.3704245292        8.8328476095       26.0779675762
  H        -4.4654417279        8.9599629496       27.4908687263
  C        -4.8660836811       10.4972531139       26.0251204323
  N        -1.0583793168       16.5513442873       30.3385845750
  C        -1.7466473144       16.2952940522       32.5043152560
  C        -2.0040499050       14.1582645358       33.6807364507
  H        -1.5341179095       12.4255610900       32.6184677811
  H         7.4276351116       12.7219975782       17.9640266674
  H         5.8297877377       12.8213220219       18.3420271463
  H         6.7759188163       14.3927553791       17.9761335670
  S         4.4185006385       10.1118818598       13.8619303278
  C         4.1588027464        7.4274520497       13.2077068304
  H         4.8165577058       10.7515319664       28.9477458809
  H         4.4063134278       10.4826085991       30.6933642685
  C         5.7619839805        9.0773150831       29.5883324709
  H        -4.2066226673       10.8394045294       25.2511433090
  H        -5.0636499496       11.3489483843       26.6176195574
  C        -6.1007459036        9.7828230805       25.6078361126
  S        -1.1966282729       18.0793034210       30.8820309672
  N        -1.7030254605       17.6742852193       32.3891021188
  C        -2.1035098603       15.6469451099       33.7327253871
  H        -2.1234458547       13.6434586068       34.6272045061
  C         4.6581338399        9.4430958539       12.2337444818
  N         4.3644195121        8.1508262794       12.0381113257
  O         3.9382287729        6.2067256098       13.3583590726
  H         6.6916855676        9.5974537862       29.7322828562
  H         5.6476212050        8.5314222362       28.6411559221
  C         5.7041991895        7.9944071019       30.6370238035
  H        -5.8241822982        9.0228350214       24.8707507666
  H        -6.4228792109        9.2312621161       26.4587558013
  C        -7.2748943565       10.6108527597       25.0154640254
  C        -2.4257330907       16.4239650795       34.8765754554
  S         4.8291418213       10.3965105319       10.7977601415
  C         4.3266026673        7.4837576326       10.7201292811
  H         6.1049996941        8.5213647773       31.5451219656
  H         4.6755251336        7.6519534919       30.8009552398
  C         6.7896743364        6.9426708154       30.3584021784
  H        -7.3000076307       10.7971308325       23.9420358833
  H        -7.0830280015       11.5046964695       25.5926220569
  C        -8.6034835808       10.0586314029       25.2876793857
  H        -2.1577532270       17.4838489917       34.8237327978
  C        -2.9283186340       16.1067718289       36.1433035405
  H         4.8140995349        8.0650410445        9.9186832099
  H         4.8902066191        6.5136938233       10.7907883297
  C         2.8933736245        7.1400560306       10.3610820027
  H         7.7105292015        7.5452839353       30.3362596073
  H         6.6841626203        6.5244782654       29.3411244313
  C         6.7473116992        5.8728045443       31.4654051523
  H        -9.2027120897       10.2708907679       24.4373125336
  H        -8.6331177109        8.9679122163       25.2639765079
  C        -9.1410996553       10.6101590106       26.6331971488
  S        -3.3672085772       14.4886122150       36.7795330954
  C        -3.0214685462       17.1262648427       37.2169836554
  H         2.8529592721        6.1273708277        9.9629237788
  H         2.2258506057        7.1082486216       11.2222331219
  H         2.4057503686        7.8339948496        9.7184533231
  H         7.4003893609        5.0745083161       31.1570350957
  H         5.7225680984        5.5797077713       31.4784291039
  H         7.0793062848        6.3440846825       32.3913481740
  H       -10.2166363986       10.4206818226       26.6771726061
  H        -8.9886487320       11.6413918077       26.7706526508
  H        -8.6009619606       10.0612927541       27.4309803565
  C        -3.6661333114       15.3036203318       38.3680487632
  N        -3.4711681713       16.6414804385       38.3362463928
  O        -2.7320368596       18.3398275797       36.9939033337
  S        -4.2228802278       14.5711539073       39.9009047075
  C        -3.6169555733       17.4767458130       39.5446753935
  H        -3.8346410000       18.5312054465       39.2935521639
  H        -4.4494089681       17.1910909265       40.1899272297
  C        -2.3069049495       17.3679850573       40.3371151744
  H        -2.1070198520       18.2346538383       40.8776039581
  H        -2.2909924761       16.5594945095       41.0138081504
  H        -1.5277371357       17.1176699480       39.6442343097
