352
i=
  H         2.3723947932        1.2634559668       12.5876172211
  C         3.2162192664        1.7806910266       12.0344226177
  H         3.7996757113        0.9580767307       11.7262589104
  C         2.6254391109        2.3728445719       10.7369413419
  C         3.9567240031        2.7058665876       12.9785641896
  C         3.7082515709        2.6990974863        9.6756686765
  H         2.1157611521        3.2572113047       11.0133713037
  H         1.9115515763        1.6315579604       10.3390346998
  H         4.6518805080        3.3059202381       12.4219425549
  H         4.5048510457        2.1503067710       13.7175202838
  H         3.2289382935        3.2714322232       13.4320195728
  C         4.4219711459        1.3599803578        9.1997796124
  H         3.1231367954        3.0174583012        8.8569459818
  H         4.3975614211        3.4740883943        9.9998593927
  C         5.4982856030        1.5404480271        8.1172517006
  H         3.6606995181        0.5711145840        8.8907171366
  H         4.9896751043        0.9915709088       10.0786740367
  C         6.5627625780        2.6041257843        8.4187443725
  H         5.1041480537        1.6350746551        7.0777455236
  H         6.0444512469        0.5784439901        8.0091308919
  C         7.9370226954        1.9344433286        8.8294988065
  H         6.7253665721        3.0221757757        7.4071863504
  H         6.3448161860        3.3402385079        9.1148792468
  C         9.0857804340        2.9587175408        9.1532528408
  H         8.3862065418        1.2932755843        8.0427985031
  H         7.7625388340        1.3222013624        9.7447040445
  C         8.6665473943        4.2424794078        9.8169992566
  C         9.4169194744        3.6874249438        7.8773649166
  C        10.3820768915        2.3148446816        9.7047811229
  C         8.8888583526        5.3923662605        9.0476585287
  C         8.0977174965        4.6070461527       11.1082039297
  C         9.3144206345        5.0353311797        7.7873485693
  C         9.8778269642        3.1117258263        6.6938125111
  H        10.1174999831        1.5351753028       10.4517443216
  H        10.7967532933        1.6496973750        8.9341000516
  C        11.4045996924        3.3084968748       10.2419296882
  S         8.3790385270        6.8530752434        9.7822487002
  C         8.0639920175        5.9973029406       11.2219408067
  H         7.9759055538        3.8401751584       11.8112313272
  C         9.5719519879        5.7347419736        6.5943228157
  H         9.9698037249        2.0258640967        6.7303948720
  C        10.2272545453        3.7913880347        5.5505055592
  H        10.9776370078        3.7319525843       11.1461214927
  H        11.6341564732        4.1195395222        9.5128276513
  C        12.6294013057        2.6290781283       10.8139242765
  C         7.6847734832        6.6699829879       12.4629637484
  C        10.0806880976        5.1582560976        5.4357623209
  H         9.4271598246        6.8399554499        6.6281221263
  C        10.6204263518        3.3664107475        4.3072441877
  H        13.4827576326        3.1962307753       10.5936047446
  H        12.7106139280        1.5378164785       10.4785803803
  C        12.4975010050        2.6400389337       12.3371078124
  C         7.7399835149        8.0718961254       12.7258137063
  C         7.3168617409        5.7910945977       13.6354763767
  C        10.4734163702        5.8144586470        4.1223995438
  C        10.7692595121        4.4399835790        3.4123082273
  S        10.9520943908        1.8423668551        3.5687006262
  H        12.5868884090        3.6590413188       12.7262860425
  H        11.5411167255        2.3246256962       12.5480882826
  C        13.7065970335        1.9064416944       12.9940494080
  N         8.0113739999        9.0642044297       11.7785798861
  C         7.5863764453        8.6089654964       14.0149336370
  C         7.2024210902        6.3479919921       14.9082742841
  H         7.1925203815        4.7105019336       13.5481018942
  C        11.7337336666        6.6906424615        4.2492440923
  C         9.4514206705        6.6221524541        3.3314685998
  C        11.2008459593        4.0206948532        2.1454756085
  C        11.2704357046        2.6858625813        2.0620008879
  H        14.4376473019        2.6170520387       13.1893310224
  H        14.1297670764        1.1761560312       12.3255387616
  C        13.2845293002        1.2747603085       14.3491912882
  S         8.0231593940       10.5672265637       12.4943588886
  N         7.6990142965       10.0033285576       13.9965179043
  C         7.3334561055        7.8116459411       15.1519905060
  H         6.9067647073        5.6180708643       15.6402271645
  H        11.5998085758        7.5134836362        4.9202316075
  H        12.0923444186        7.1491676420        3.2845822785
  C        12.9119269767        5.7850575548        4.8604223851
  H         9.2736393578        7.5951293988        3.8729788412
  H         9.9165436607        6.8106098661        2.3658852914
  C         8.0829683882        5.8986147514        3.2387607893
  H        11.3964301041        4.8173231473        1.3554030299
  C        11.5132930394        1.8245817623        0.8224948717
  H        12.2766406510        0.8870239672       14.2520449985
  H        13.9429457723        0.4311841918       14.5019022258
  C        13.1506714037        2.2927399893       15.4669826024
  C         7.1240588666        8.4280065523       16.3948006697
  H        12.6767463731        5.1363303863        5.6295613970
  H        13.1541930366        5.0303957948        4.1157669524
  C        14.1980928599        6.4972182102        5.2077499440
  H         7.3249863974        6.5178364641        3.6403522973
  H         8.0458852189        4.9503011949        3.7041143267
  C         7.4536550363        5.7641880155        1.8613161284
  C        11.5668281148        0.4064997930        0.7980517960
  C        11.7569684505        2.5256562957       -0.4499562132
  H        12.5159583284        3.1334839388       15.0894459159
  H        14.0835006392        2.7894241318       15.7130119625
  C        12.5853287989        1.7907281818       16.7090108903
  H         7.3708447545        9.4232964845       16.5079954322
  C         6.8237593280        8.0173412500       17.6412853426
  H        14.0908383611        7.0673206540        6.1550517592
  H        14.4805007662        7.1469942510        4.3686505398
  C        15.3223939111        5.4721804107        5.5131842378
  H         7.7976678360        6.5432228145        1.2064592244
  H         7.8390890482        4.8288292105        1.3995672572
  C         5.9569675172        5.5647440553        1.9268250716
  N        11.2500959579       -0.4779727387        1.8583704747
  C        11.9013195042       -0.3031784101       -0.3166977320
  C        12.0683579729        1.8063976809       -1.5790573775
  H        11.6362256079        3.5652670754       -0.5014754383
  H        12.7144053768        2.5029775604       17.5514843153
  H        13.0669314024        0.8789442116       17.0732546905
  H        11.5312049493        1.5473300709       16.6058499730
  S         6.3552136314        6.3742316269       18.0875651621
  C         6.6319636160        9.0179762390       18.7036291012
  H        14.9548499799        4.5131313795        5.8703549921
  H        15.7712025084        5.4301604713        4.4892016568
  C        16.3962307405        6.0323514400        6.4578868043
  H         5.7637870415        4.8694005036        2.6632065697
  H         5.5841684676        5.0304033913        1.0434605011
  C         5.0707485566        6.7986188844        2.1411463504
  S        11.5042026019       -1.9689900784        1.3063407992
  N        11.9839657291       -1.6551413462       -0.1710796284
  C        12.3278114494        0.3476788128       -1.4859837115
  H        12.2305065564        2.3456371065       -2.4793816240
  C         6.0388943301        7.0454194335       19.7096820044
  N         6.1957080705        8.3557434470       19.8404233056
  O         6.8037270849       10.2563649483       18.6119224303
  H        16.9922221788        6.6971489100        5.8039110004
  H        16.0022172649        6.7444863049        7.2254214752
  C        17.3157756489        4.9500805471        7.1232735187
  H         4.0593485438        6.4162685452        2.0620656392
  H         5.0344922279        7.1850914779        3.1847629120
  C         5.5249769340        7.9759057179        1.2523163923
  C        12.7291411577       -0.4685270203       -2.5632372223
  S         5.6380932673        6.1426724570       21.1242269447
  C         6.0820947111        8.9867123966       21.1327219795
  H        16.9640910620        4.7421388541        8.1445370587
  H        17.2656083121        4.0744895928        6.5015810551
  C        18.7158862342        5.4951308413        7.2750268608
  H         6.1067525335        7.5300866343        0.4634141643
  H         6.2403477446        8.5082284020        1.8505324301
  C         4.3007397349        8.7997114614        0.8114533222
  H        12.8249422600       -1.5695050158       -2.3493238579
  C        13.0925319849       -0.2025540186       -3.8638244343
  H         5.7728501790        8.4093276213       21.9961352266
  H         5.2091850146        9.7521763999       21.1309316095
  C         7.3470823579        9.5333917477       21.6407758867
  H        19.1668993710        5.0403524253        8.1951716724
  H        18.4815625201        6.4962613256        7.5758561200
  C        19.6416161762        5.4588195871        6.1398388818
  H         4.2148718592        8.7717151495       -0.2261423387
  H         3.3686156106        8.2773094710        1.1203406426
  C         4.4287213070       10.2694034427        1.2641714598
  S        13.3244802027        1.3315539864       -4.5853897924
  C        13.2667980197       -1.3388852390       -4.7951163083
  H         7.1931606159       10.4502614330       22.1488763246
  H         8.1223076745        9.6062814501       20.8964756992
  H         7.8030792500        8.8515924609       22.3947825149
  H        19.2263485577        5.6158423761        5.1806291565
  H        20.4731114533        6.2280653334        6.0943308687
  H        20.1816152581        4.5035561015        6.1402613122
  H         5.1846379592       10.7969911922        0.7578578012
  H         3.4900426854       10.8120588934        0.9911274985
  H         4.5443922272       10.2577799055        2.3561648366
  C        13.7130652341        0.4895217260       -6.0596058942
  N        13.7066554689       -0.8735249722       -5.9760771151
  O        13.0484989688       -2.4772230105       -4.4854568467
  S        14.2536350179        1.1445138640       -7.5680605908
  C        13.9195162230       -1.7327193250       -7.1369086581
  H        13.9187789729       -2.7461981077       -6.7791263253
  H        15.0038894655       -1.4956829269       -7.4116661602
  C        12.7131314889       -1.5327405281       -8.0475084949
  H        11.8418394222       -1.0629825379       -7.7240809747
  H        12.4770719628       -2.5012228879       -8.5984155528
  H        12.9084834232       -0.9496527136       -8.9266307194
  H        -3.2800388125       15.0524794078       16.7091787255
  C        -2.8421344977       14.0709560415       16.3134806224
  H        -3.5319186858       13.2206037670       16.4144087817
  C        -1.6587589987       13.7627303352       17.2678882618
  C        -2.3460800972       14.3514504902       14.8822398563
  C        -1.9791248088       14.0344615269       18.7560398049
  H        -1.3440108073       12.7166664486       17.1418669708
  H        -0.7256509334       14.2542666514       17.1055226692
  H        -1.5519758654       15.1177301769       14.8482957766
  H        -1.7664508946       13.5231490379       14.5637970675
  H        -3.0413575230       14.5828352804       14.0829423783
  C        -1.9322258460       12.7933378631       19.7414856350
  H        -2.9274038418       14.4664318027       18.8823191811
  H        -1.2547720137       14.8028566997       19.0448929466
  C        -2.1450564091       13.2457590439       21.1693312941
  H        -2.7599744147       12.1143406435       19.4886334641
  H        -0.9660371072       12.2052514042       19.7329329169
  C        -1.1926699670       12.6705651944       22.1779324946
  H        -3.2087261169       13.0888051931       21.4317772230
  H        -1.9967594340       14.3079584827       21.1854813062
  C         0.1212382221       13.4647309066       22.1589734400
  H        -1.7403440297       12.5874708464       23.0829911997
  H        -0.8998308975       11.6668698055       21.8236106457
  C         1.3046336612       12.8469770615       22.8944802354
  H         0.4635462141       13.7531030618       21.1638173369
  H        -0.1362198421       14.4119485188       22.6447541356
  C         1.7506562804       11.5873883601       22.2235918966
  C         1.0279559962       12.1197194172       24.2126174550
  C         2.4988400250       13.7953960259       22.9956358059
  C         1.5752840157       10.4386810489       22.9793421655
  C         2.2601381307       11.2132138193       20.9724090476
  C         1.1189270494       10.7285641924       24.2503244138
  C         0.7079895250       12.7426154619       25.3883085972
  H         2.6901797923       14.2694845243       22.0789398239
  H         2.3390289886       14.6044886742       23.7199072674
  C         3.8308784418       13.1660803151       23.4128228544
  S         2.0975659132        8.9802903237       22.3425916434
  C         2.3399757609        9.8464356574       20.8726136084
  H         2.4380159937       11.9450137493       20.2285422950
  C         0.8223077253       10.0728379879       25.4050295521
  H         0.5771246683       13.8491061989       25.4222661094
  C         0.3007554594       12.0548234222       26.4701716832
  H         4.2495697957       12.6745350998       22.5906605056
  H         3.4684148151       12.5306660874       24.1961068171
  C         4.7350061696       14.2428687091       24.0262527225
  C         2.8056001908        9.1431706779       19.6618443107
  C         0.3638672974       10.7389666856       26.5375192273
  H         0.8226291821        9.0382904974       25.4357913717
  C        -0.1686909861       12.4268316951       27.7197440563
  H         5.4159266184       13.7440098259       24.7328377638
  H         4.1862934652       14.9504927350       24.6724966524
  C         5.6371452209       14.9230722827       23.0028006414
  C         2.6570347904        7.7352217500       19.3714990600
  C         3.2823544216        9.9408126774       18.4999214823
  C        -0.1298246098       10.0175270490       27.8359397790
  C        -0.3612362632       11.3217725201       28.5573385944
  S        -0.5197799538       13.9006350507       28.4878628662
  H         6.1452990081       15.7992757777       23.4271549015
  H         4.9800206987       15.2591803181       22.2080746512
  C         6.6166899363       14.0290136610       22.1431274324
  N         2.2386616053        6.7588912337       20.2755361769
  C         3.0033903493        7.2193315043       18.1518886258
  C         3.5794915814        9.4925366035       17.2271324397
  H         3.3893944648       10.9728515580       18.6275173857
  C         1.0207953006        9.2059011101       28.4706799246
  C        -1.4124341546        9.2169175546       27.6280582331
  C        -0.6727825108       11.7363318921       29.8800715942
  C        -0.8198013990       13.1170967086       29.9978481211
  H         7.5880115406       14.5585129251       22.1053957268
  H         6.8619091062       13.0750043324       22.6269395153
  C         6.1939776832       13.8223606621       20.7636114576
  S         2.2291452541        5.3163500398       19.5606505743
  N         2.8806107505        5.8455900511       18.1532782794
  C         3.5067971243        7.9868986828       17.0623116143
  H         4.1116235069       10.1045121624       16.5356937357
  H         1.2982307144        8.2727095240       27.9455613936
  H         0.6552320334        8.9045885569       29.4460830236
  C         2.2950568473       10.0863856257       28.7674978298
  H        -1.2139548879        8.6535809968       26.6958740996
  H        -1.5996600929        8.7171348447       28.5087801762
  C        -2.6182503392       10.1366782260       27.2583914751
  H        -0.7560044994       11.0129813201       30.7242557430
  C        -1.1275916464       13.9263483671       31.1977229377
  H         5.9164721911       14.7776684971       20.4183886511
  H         5.3774910653       13.1371160930       20.7526978508
  C         7.2825196860       13.2850481929       19.7912118243
  C         3.8665485124        7.2840344514       15.8492033838
  H         2.9626950569       10.0206084337       27.9170653206
  H         2.2006683064       11.1444774582       29.0712959851
  C         3.1123631675        9.4302650243       29.8121547010
  H        -2.4965966442       10.6238127339       26.3508545975
  H        -2.9379824323       10.9584216173       27.9304485491
  C        -3.8348468725        9.2889355109       27.1224448509
  C        -1.2899200088       15.3172768354       31.2943989030
  C        -1.5591324494       13.2141601618       32.4043980976
  H         8.0918254612       13.8651599427       19.8432008836
  H         7.4847667020       12.2115012703       19.8949636311
  C         6.9073716928       13.4883479309       18.2695508997
  H         3.6450315983        6.2610537422       15.9235236119
  C         4.1439560959        7.6898424485       14.5853405073
  H         3.4740760306        8.3815786430       29.7024624030
  H         2.6710343455        9.4135087850       30.8013888088
  C         4.4036521170       10.2893878192       29.9664032561
  H        -3.6295211072        8.4117000401       26.4960987728
  H        -4.1324928726        8.8636272869       28.0709398800
  C        -5.0713616724       10.0829709973       26.5858798039
  N        -1.0346915065       16.2169638708       30.2785923993
  C        -1.6706320189       15.9683480470       32.4761237155
  C        -2.0641775357       13.8233609152       33.5936678732
  H        -1.5751744905       12.1401172126       32.3898975357
  H         6.6673575945       14.4879071180       18.0978156448
  H         7.6724610617       13.1978090661       17.5118812236
  H         5.9817293465       12.9410033516       18.1196724911
  S         4.3978556575        9.2975482687       14.0058395854
  C         4.1295090831        6.6624916101       13.4882287445
  H         4.3761741053       11.1384090307       29.2957725056
  H         4.3266200858       10.7557228514       30.9675510696
  C         5.7585313768        9.5565557737       29.8235365263
  H        -4.7386542981       10.9472202744       26.0731218590
  H        -5.7316341223       10.4383669639       27.3807256332
  C        -5.9506611920        9.4335353953       25.5438840034
  S        -1.0208091610       17.7365805305       30.9349525766
  N        -1.5756472909       17.3252293796       32.4286039030
  C        -2.0185009836       15.3431321163       33.6873373812
  H        -2.3710037600       13.2129959135       34.4669408224
  C         4.3459301890        8.6199470061       12.3851146177
  N         4.4719467336        7.2478930306       12.3464778061
  O         3.9386923487        5.4570432991       13.7184446318
  H         6.4955035779       10.3600878855       29.7592888489
  H         5.7359056473        9.1293053282       28.8489533751
  C         6.0090093003        8.6123902731       30.9693605514
  H        -5.2454829850        9.0086852923       24.8071323167
  H        -6.6019797350        8.6387869155       25.8596493653
  C        -6.8502465769       10.4293537559       24.7540721320
  C        -2.4276688457       16.0916820480       34.7868250345
  S         4.6579294943        9.6204274468       10.9358210558
  C         4.5439104617        6.5590789605       11.0369115251
  H         6.5436368202        9.0305925108       31.7912788548
  H         5.1286215412        8.1819434407       31.4720025412
  C         6.8601282474        7.4328881286       30.4845707834
  H        -6.4143332390       10.5257999738       23.7250122114
  H        -6.8344207247       11.4124027313       25.2386042236
  C        -8.2617892102        9.9370858432       24.7713498920
  H        -2.2121579252       17.1530405750       34.7773023871
  C        -2.9918837206       15.7007436996       35.9929937625
  H         5.2725296175        6.9704468355       10.3654360529
  H         4.9982391817        5.5717153261       11.1518035971
  C         3.1891255729        6.5569474341       10.3850520407
  H         7.7864327625        7.7993247292       30.1258613948
  H         6.3917479854        6.9225061753       29.6985501605
  C         7.1720718562        6.3554863192       31.5060555671
  H        -8.7611477623       10.5215145865       23.9420624872
  H        -8.3537632116        8.9501071176       24.5935899598
  C        -9.0836262221       10.2661174184       26.0697718995
  S        -3.7011707798       14.2000575294       36.4250545204
  C        -3.0927530869       16.7242949619       37.0290644629
  H         3.0379387733        7.2227706267        9.5605942451
  H         3.0312683763        5.5475381304        9.9258054561
  H         2.4428894409        6.7519202390       11.1702882024
  H         7.5827883806        5.5190318523       30.8709117214
  H         6.2349174175        6.1186572497       32.0235819476
  H         7.9688036333        6.6469072876       32.1529503240
  H       -10.1300111769       10.1213171904       26.0591269114
  H        -8.9428763283       11.2591216324       26.4924451937
  H        -8.6620311537        9.6782489080       26.8889393817
  C        -3.9714106597       14.8845660551       38.0116873876
  N        -3.6007832127       16.2130600683       38.1290862448
  O        -2.6124487026       17.8722133789       36.9420680485
  S        -4.6187490762       14.1228586741       39.3802328304
  C        -3.8169612538       17.0186009533       39.3315046976
  H        -4.0607682950       18.0028032891       38.9826941533
  H        -4.6756573907       16.7643693077       39.9964406014
  C        -2.5857573936       17.1620052710       40.1817866217
  H        -1.8121347781       17.8196144433       39.8044681329
  H        -3.0489961253       17.4843320326       41.1106038299
  H        -2.1778960215       16.1943549469       40.3274815368
