352
i=
  H         4.0056757772        1.8114059140       12.8626645311
  C         3.5921701215        2.7828087084       12.7454106079
  H         4.3595657872        3.5521514106       12.7371708065
  C         2.7857222001        2.8728638039       11.4927091825
  C         2.6925720270        3.1276416186       13.9121441811
  C         3.5759783405        3.1843589291       10.2471358135
  H         2.0752696983        3.6845865262       11.5860174339
  H         2.2553873793        1.9072787849       11.3668670246
  H         2.2919042596        2.1906974111       14.2710263618
  H         1.8597349591        3.6725351586       13.5526342009
  H         3.1850697485        3.5972401562       14.8373082815
  C         4.4911256316        1.9699595098        9.9166338099
  H         2.8390613443        3.2931655023        9.4898604295
  H         4.2147874758        3.9912504342       10.2869910531
  C         5.3578421443        2.0748712945        8.5932006378
  H         3.7677747371        1.1776201311        9.9307339573
  H         5.2138990349        1.7889595896       10.7256709303
  C         6.4960743160        3.0457808701        8.8784852457
  H         4.6219985964        2.3229410165        7.7869305724
  H         5.7412834075        1.0490320423        8.2501267752
  C         7.7480009312        2.2399231197        9.2804951797
  H         6.5576443327        3.5107910972        7.9092379971
  H         6.1767899258        3.7826882994        9.5624743154
  C         9.0863304561        3.0290168904        9.3072936363
  H         7.7898292653        1.4244179444        8.5437399271
  H         7.6262062815        1.7328757351       10.2694405738
  C         8.7296913704        4.3788464807        9.9523149254
  C         9.4629466570        3.7237809143        8.0829287005
  C        10.2859444779        2.3175684122        9.8964626339
  C         9.0137667693        5.4302249012        9.1233448510
  C         8.1318026925        4.7874347387       11.1784671873
  C         9.4432535932        5.0862028879        7.9281029936
  C         9.9671146814        3.1745466281        6.9417311294
  H         9.9583615692        1.8100390232       10.7782002008
  H        10.5712403436        1.6232781490        9.1570016551
  C        11.5815792070        3.1118396207       10.1919977094
  S         8.6222605816        6.9334375131        9.8385681550
  C         8.0172443889        6.1631774595       11.2348752587
  H         7.9013562768        4.0848783184       11.9896058853
  C         9.8810593787        5.7239402032        6.7922804987
  H        10.0404405986        2.1214305029        6.9873901297
  C        10.3549389163        3.7386492713        5.7276314406
  H        11.2808288226        4.1031712066       10.5078784844
  H        12.0849744823        3.3728056727        9.2614552051
  C        12.4032056821        2.5251951415       11.3267052624
  C         7.5907222053        6.9326336260       12.4835747327
  C        10.3622591091        5.1006262198        5.6327092928
  H         9.8443949728        6.7765803707        6.6652124135
  C        10.7663705387        3.3261727976        4.4926404507
  H        13.3520472587        3.0491479606       11.3099246649
  H        12.5884814523        1.4832093676       11.0375206767
  C        11.7204794033        2.6584691336       12.6927959320
  C         7.6184639956        8.3057273080       12.7316159212
  C         7.2305699768        6.1524458813       13.7188913190
  C        10.7141336607        5.7722637816        4.3913863239
  C        10.9810576176        4.4169318780        3.6780831779
  S        10.9505060917        1.8808372610        3.7432533313
  H        11.4218609852        3.6561983796       12.7906847490
  H        10.7534944343        2.1033152902       12.6426983787
  C        12.5485928465        2.1856520928       13.8495027994
  N         8.0200933518        9.2150045293       11.7383786013
  C         7.3359876236        8.8779476214       13.9555757452
  C         6.8450569677        6.6979455565       14.9600630343
  H         7.1736991892        5.0794241453       13.6331930209
  C        11.9712725608        6.6033158569        4.5911900073
  C         9.6583999126        6.6683977147        3.7061870638
  C        11.3988704900        4.0331791006        2.4169267513
  C        11.4293415060        2.6748094860        2.3386538787
  H        13.5714535111        2.6509409324       13.8152583940
  H        12.6507281619        1.1143501582       13.8526971546
  C        12.0846092752        2.7007702869       15.1501440292
  S         7.9429122896       10.7149245192       12.3328669885
  N         7.3053885278       10.3063201185       13.8227735306
  C         7.0537871217        8.1464627381       15.1453483301
  H         6.4108363623        6.1155995735       15.6606088061
  H        11.8703183138        7.3490892707        5.4265966675
  H        12.2480674123        7.1124593192        3.6698780335
  C        13.2214740277        5.8272285242        5.0160361243
  H         9.2938923253        7.2732757331        4.5596071303
  H        10.1812265359        7.3173907928        2.9820652092
  C         8.5418989078        5.9581212043        2.9872962328
  H        11.7001868894        4.7760935312        1.7865208788
  C        11.8105641264        1.9017681964        1.1194919628
  H        12.2649245565        3.7531672850       15.1554659854
  H        10.9928367691        2.6455193386       15.3060462792
  C        12.7866020076        1.9838730593       16.2753719605
  C         6.8182332795        8.8079728111       16.4004338158
  H        13.0270149817        5.3336569333        5.9057276777
  H        13.6470239210        5.1839836941        4.2471088218
  C        14.2692885551        6.9356413324        5.3079055408
  H         8.1365052155        5.1531972426        3.5471075207
  H         9.0015147864        5.5071174446        2.1649783945
  C         7.4308617104        7.0070752784        2.6730698957
  C        11.8303869370        0.5203035348        0.8653487655
  C        12.0163549506        2.6727873836       -0.1848870029
  H        13.6142076388        1.4184025898       15.8664806364
  H        12.1808025322        1.1904609599       16.6977408769
  C        13.2863194442        2.9887851593       17.3702249487
  H         6.9255833146        9.8090370052       16.3912539111
  C         6.4863603850        8.3857195331       17.6509550796
  H        14.1402179731        7.4914164366        6.2153978972
  H        14.1534369438        7.5760600553        4.5209913306
  C        15.6734910506        6.4458231582        5.3752845069
  H         7.0673769308        7.2759624684        3.6515823007
  H         7.6693792572        7.8820665274        2.0653656881
  C         6.2598508292        6.3404961897        2.0887570515
  N        11.5730612908       -0.4543510580        1.8381599359
  C        12.0489925621       -0.0705340709       -0.3515362233
  C        12.1788824684        2.0648332321       -1.4738761759
  H        11.7790689554        3.7090818879       -0.1751141427
  H        14.0982223798        3.5309012539       16.9924722231
  H        13.4413953531        2.5118431475       18.3361892880
  H        12.4134331138        3.7261412219       17.6065922970
  S         6.2816912424        6.7712744962       18.0645642142
  C         6.2744952915        9.3197639860       18.7961200045
  H        15.6915391877        5.7009205797        4.6068821937
  H        16.3961926637        7.1809879899        5.0993252013
  C        16.0338549999        6.0268038665        6.6987938792
  H         5.7645356293        5.7814250173        2.8683171220
  H         6.5906459481        5.6198277444        1.3652265024
  C         5.1351006353        7.2105220052        1.5780013799
  S        11.6031927428       -1.9176241445        1.1775061965
  N        12.1169489493       -1.4559510797       -0.2504611087
  C        12.3329622826        0.6473406345       -1.5369530456
  H        12.2146222633        2.6229648639       -2.3944027811
  C         5.9682354603        7.3272265583       19.6823599305
  N         5.7797528039        8.5848115772       19.8510982864
  O         6.2427248669       10.5526940878       18.6251064088
  H        15.8457329239        6.7717167129        7.5006930002
  H        15.3232659345        5.1944528249        6.8857306049
  C        17.4648385435        5.5685395208        6.7589953573
  H         5.6254556334        7.7664032772        0.8377509592
  H         4.2567178504        6.8150764142        1.1444921961
  C         4.5715152486        8.1884635399        2.5933232436
  C        12.7031799866       -0.1406791117       -2.7045866659
  S         5.7128604510        6.2644899419       21.1511818983
  C         5.6331832927        9.1114627414       21.2235262697
  H        17.6438905240        4.8298774305        7.5419400888
  H        17.6703074427        5.0089718802        5.8678974318
  C        18.3790652506        6.6378820042        7.1154842984
  H         5.4059288527        8.5519972315        3.1013507114
  H         3.8906476417        7.6048829272        3.2724235158
  C         3.7828324281        9.3523588665        1.9088595497
  H        12.4512262663       -1.1833877811       -2.6284830074
  C        13.1638023678        0.2183751888       -3.9160835987
  H         4.8173260715        8.5158669059       21.6976775534
  H         5.2179835423       10.0770273569       21.1290842269
  C         6.9580216889        9.2384682543       21.9752553081
  H        18.1221512439        7.1934567448        8.0212048007
  H        18.3429856038        7.3734323829        6.3170510665
  C        19.8973727631        6.1595291787        7.1751494663
  H         2.9226904882        9.0124773133        1.3936494231
  H         3.3819609049       10.1099150050        2.6779485643
  C         4.7039231891       10.3464001458        1.1429677060
  S        13.6861553521        1.7852971232       -4.4275254365
  C        13.2776471083       -0.8693012053       -4.9031923670
  H         6.7216809474        8.7187615337       22.9095604768
  H         7.1765248879       10.2536198884       22.1769466980
  H         7.7885890878        8.7339653501       21.5352401134
  H        20.5755629936        6.9665739696        7.0285072574
  H        20.2561704605        5.8145926986        8.1747012295
  H        20.1231466186        5.4006530527        6.4077305645
  H         4.7857340387        9.8446432530        0.1634819931
  H         4.2420922003       11.3353195863        0.9490412155
  H         5.6815711532       10.4655760711        1.5774684160
  C        13.9853560568        0.9970313981       -5.9497510210
  N        13.8218460158       -0.3342485529       -6.0082863706
  O        12.9443470368       -1.9967724303       -4.7632255965
  S        14.7843245818        1.6752483984       -7.3747453264
  C        13.9175126801       -1.3041417122       -7.1294817724
  H        14.1517920573       -2.2437383616       -6.6888314052
  H        14.7143788359       -0.9364834702       -7.8058662770
  C        12.6594135988       -1.4551478121       -7.9398151333
  H        11.9578882838       -0.5993232537       -7.8163746841
  H        12.2192982587       -2.3934374894       -7.8401409705
  H        13.0966271783       -1.4161098766       -8.9863597924
  H        -3.0696930030       15.5027543562       16.1560028400
  C        -2.9499060577       14.4683553350       16.1638155433
  H        -3.9139274576       14.1332682961       16.4482995626
  C        -2.0688960452       14.0557209793       17.3547899528
  C        -2.7548747215       13.6586756330       14.8586847438
  C        -2.7939424438       13.7422069138       18.7279931579
  H        -1.6002257846       13.1324921965       17.1178006514
  H        -1.4003136760       14.8390688025       17.4777443198
  H        -3.6636938094       13.3728681341       14.2433463979
  H        -2.1780080656       14.2928526544       14.1404052410
  H        -2.3350110325       12.6826085507       15.0202659717
  C        -1.8122936499       13.3716435343       19.8574152215
  H        -3.4864723681       12.9331866232       18.5398301231
  H        -3.4263089320       14.5289024929       19.0311717022
  C        -2.3832610379       13.7512974265       21.2093642924
  H        -1.6661058334       12.3488916882       19.8897364959
  H        -0.8845995030       13.7992947800       19.6973206813
  C        -1.5112105345       13.1356310815       22.3922875514
  H        -3.3086922277       13.2683251473       21.2707175825
  H        -2.4148152897       14.9231532747       21.2736688359
  C        -0.1754539676       13.9766920737       22.5587976155
  H        -1.9477071333       13.3342496257       23.3474947682
  H        -1.3941180341       12.1034171530       22.3355454623
  C         0.9169460131       13.1470157915       23.3642785785
  H         0.3306624313       14.3516407604       21.7167116571
  H        -0.4730868031       14.8185929685       23.1756803589
  C         1.3447259432       11.8454125569       22.6880124924
  C         0.3995555782       12.4465010245       24.6278396254
  C         2.0941400282       13.9884037278       23.7119303767
  C         1.1006272659       10.7517305346       23.4755834202
  C         1.8160679427       11.5007152044       21.4025228411
  C         0.4338130452       11.1164418959       24.6440564953
  C        -0.0884665797       13.0233159215       25.8002826877
  H         2.3802177561       14.8610082507       23.1083459534
  H         1.7350253679       14.5335894733       24.5415723469
  C         3.3312793018       13.2641760282       24.2199009949
  S         1.5427424182        9.2117851125       22.6729280671
  C         2.0267604666       10.1546265635       21.3208063340
  H         2.0164698067       12.2766235862       20.6242530412
  C        -0.0593339371       10.4382384788       25.7303743046
  H        -0.1882101444       14.0956960707       25.7959170854
  C        -0.4780480291       12.3697581958       26.8926943502
  H         3.5727442849       12.3838210724       23.7069116695
  H         2.9942247706       12.8823119617       25.2154667848
  C         4.5881777355       14.0929574432       24.4728362388
  C         2.3626404122        9.4676739659       19.9802868354
  C        -0.5315576546       11.0092751310       26.9055847945
  H        -0.0288760350        9.3212797715       25.6569918526
  C        -1.0065372842       12.7442787669       28.1071353114
  H         5.4452339543       13.6404235665       25.1588104183
  H         4.2498426473       15.0275011817       24.9052727683
  C         5.2215067512       14.4697853505       23.1814659993
  C         2.3638720156        8.0690885272       19.6861719217
  C         2.5187540029       10.3291722414       18.7136613232
  C        -1.0193704130       10.2297382496       28.1269960737
  C        -1.2990026841       11.6094188860       28.8490570049
  S        -1.3112980718       14.1164041527       28.9341756106
  H         5.9522674471       15.2708892319       23.3205951230
  H         4.5031658153       15.0233233310       22.4300879097
  C         5.8704620959       13.2969897191       22.4700756487
  N         2.2193061132        7.0556142648       20.6694897383
  C         2.7594983729        7.5039427295       18.4757948857
  C         2.7993059693        9.7938025960       17.5093822410
  H         2.5830174079       11.3458783552       18.7607808118
  C         0.0431885109        9.3298016207       28.7410334513
  C        -2.2415804159        9.5724928898       27.8848672298
  C        -1.6059712516       11.9750829049       30.1585964161
  C        -1.7642902716       13.3252742064       30.2909460574
  H         6.9248004267       13.3339868960       22.8523794826
  H         5.3974092248       12.3179578001       22.7868094634
  C         5.8252800040       13.3847724353       20.9080287977
  S         2.4896991747        5.6136661989       19.9131578459
  N         2.8134533707        6.1150931408       18.4603269206
  C         2.9970312181        8.2830254896       17.3535884619
  H         2.9792553164       10.3093255423       16.5949995994
  H         0.3540282069        8.7849514247       27.9138407502
  H        -0.4182730877        8.6289801657       29.4746523020
  C         1.2829876204       10.1947272233       29.1552958978
  H        -2.0530229390        8.8159315763       27.0870343640
  H        -2.7201854422        9.1274679612       28.8054486159
  C        -3.4029702009       10.4881941289       27.3230547812
  H        -1.5847536987       11.1374772216       30.8655955134
  C        -1.9336351819       14.2336385361       31.5101741213
  H         5.5753770121       14.4447042447       20.7430121857
  H         4.9663231548       12.8103225700       20.3887343568
  C         7.1848471094       13.4259843904       20.2628324275
  C         3.3548590185        7.6841116341       16.1029541719
  H         1.4423205021       10.8763264766       28.3056607182
  H         1.0482523953       10.8030507267       30.1043414159
  C         2.4567925522        9.2900328278       29.5343532469
  H        -3.0994512831       10.8975593468       26.3476005806
  H        -3.6812233022       11.3207625343       27.9301265243
  C        -4.7681947674        9.7060342036       27.0099633937
  C        -1.9839101391       15.6290542729       31.6169448295
  C        -2.1809873425       13.4932210411       32.7937824585
  H         7.7826879190       14.1741536281       20.8035506094
  H         7.7121986154       12.4697967169       20.2625038420
  C         7.0481372614       13.8290944334       18.7751306482
  H         3.2815596504        6.5934927038       15.9782799077
  C         3.6492934865        8.2259600398       14.8755615285
  H         2.6890370155        8.5547465902       28.6701840788
  H         2.0443931431        8.5756248720       30.2474587164
  C         3.7738793986        9.9749496052       29.9461494563
  H        -4.6227626411        8.8070970706       26.4131003642
  H        -5.3532995275        9.3782148247       27.8803898961
  C        -5.7066458001       10.6182734090       26.2501318531
  N        -1.7830123171       16.5089469496       30.5560442650
  C        -2.3088868336       16.3190020196       32.7579329465
  C        -2.5241610302       14.1625130395       33.9292894061
  H        -2.0266323570       12.4287685297       32.9230305752
  H         7.3760097565       12.9889676218       18.1001657573
  H         6.0586726909       14.1255834344       18.4749945875
  H         7.7470296233       14.6877007613       18.4780395870
  S         3.6191076758        9.9010472473       14.4310593415
  C         3.7490342805        7.3082184573       13.6890074768
  H         4.1219886818       10.6639475164       29.1802621578
  H         3.6336502738       10.4617652253       30.9018476089
  C         4.8671227052        8.8911972266       30.0567765173
  H        -5.2501291936       11.3854160933       25.6650978938
  H        -6.3302782640       11.0978090224       27.0352582792
  C        -6.5617239917        9.7963527498       25.3159792082
  S        -1.9024403061       18.0535888722       31.1066656809
  N        -2.2388177927       17.6825852153       32.6616066310
  C        -2.6808251723       15.5887135069       33.9220856570
  H        -2.3423192162       13.5782674273       34.8114527218
  C         3.9823026243        9.3147725699       12.7692974986
  N         3.9636191750        8.0014731066       12.5857363151
  O         3.5782158614        6.0930963005       13.7484864422
  H         5.8280690068        9.4309419599       30.1160348507
  H         4.8329708082        8.2766579483       29.2150443313
  C         4.6030222739        7.9279006002       31.2554153748
  H        -5.8545471591        9.2808802695       24.6162830587
  H        -7.0243085920        8.9736481781       25.8357249034
  C        -7.7310560094       10.5374308174       24.5392266801
  C        -2.8858123525       16.3800007165       35.0821243436
  S         4.5166414935       10.4009393656       11.5082228616
  C         4.1243029134        7.2054231266       11.3867448864
  H         4.4138281365        8.4952940075       32.1752757797
  H         3.7357418569        7.2075443630       31.0871162512
  C         5.8926615343        7.0813664243       31.3917770343
  H        -7.4740560699       10.5475476182       23.4720311002
  H        -7.7128269880       11.6759133914       24.7742089575
  C        -9.1698473653       10.0643772390       24.6338181774
  H        -2.4983956369       17.3882810364       35.0465268142
  C        -3.3827148366       16.0499967305       36.3276403730
  H         4.7425887466        7.7163946686       10.7679483252
  H         4.7369039471        6.3431786422       11.5832089559
  C         2.8097254754        6.8073574663       10.7326262590
  H         5.6956441142        6.5842504272       32.3267504675
  H         6.7835779851        7.5971008420       31.7363098077
  C         6.3131748193        6.2051244218       30.2698417186
  H        -9.7494769690       10.7273997645       23.9872420732
  H        -9.1910236097        9.0814554996       24.2620157133
  C        -9.8801025885       10.0785653838       26.0395666066
  S        -3.8923621380       14.5746303187       36.8141079295
  C        -3.3461860766       17.1451691476       37.3808898563
  H         3.0777122209        6.6975316656        9.6672579726
  H         2.2056502541        6.1324550010       11.3094951417
  H         2.1961165538        7.7297995420       10.6782699996
  H         7.1389663829        5.5207594870       30.5765227991
  H         6.6830274571        6.7731637799       29.4159141372
  H         5.4698060013        5.5389909609       29.8669251130
  H        -9.6003445330        9.2579757686       26.6870015055
  H       -10.9312554903       10.0306638502       25.9865435428
  H        -9.6812771456       10.9266371893       26.6755694440
  C        -4.1671145432       15.3912787194       38.4389570756
  N        -3.9163493659       16.6983968181       38.4793307334
  O        -3.0685228867       18.2564239319       37.1325592081
  S        -5.1437809702       14.5824045961       39.6243755454
  C        -4.2181752280       17.5690242203       39.7143062451
  H        -4.3897234008       18.6134184909       39.5600513875
  H        -5.1542476419       17.2458078613       40.2443269198
  C        -3.1912428155       17.4544131514       40.8115546432
  H        -3.2354780714       18.4089039058       41.3905556304
  H        -3.1923528108       16.6226337272       41.5042703836
  H        -2.3036859597       17.4931452103       40.2728246079
