352
i=
  H         2.7815927854        1.2286437234       13.2663972304
  C         3.6800224578        1.7785028664       12.9808687371
  H         4.3904790456        1.0437311735       12.5037529404
  C         3.3077617312        2.7616552430       11.8868672376
  C         4.3894638068        2.3102209053       14.2266885603
  C         4.4138381806        2.7401563021       10.7741861236
  H         3.0115360418        3.7526786021       12.2917651113
  H         2.3962175191        2.4816465756       11.3801770724
  H         4.0803909337        3.3174854701       14.5712039287
  H         5.4204025762        2.3657754806       13.9715747033
  H         4.2744959447        1.5927360451       15.1088245274
  C         4.5316227547        1.4509391159        9.9893734877
  H         4.1396145027        3.5201641562       10.0376067033
  H         5.3852142157        2.8485512459       11.2230635263
  C         5.1249478659        1.6965580054        8.5757403582
  H         3.5078717086        0.9312579673        9.9638548526
  H         5.0960996644        0.7001976343       10.5567317771
  C         6.3993597332        2.4913571965        8.5456646109
  H         4.2761816777        2.1788716930        8.0032105770
  H         5.3390052746        0.8018415446        7.9845385061
  C         7.7031633744        1.6686509964        8.9508933902
  H         6.5245577127        2.8381585676        7.5029956747
  H         6.2614624409        3.4512156286        9.0419273233
  C         9.0081544351        2.4739543022        9.2894066907
  H         7.8904552032        0.9398380461        8.1471612171
  H         7.3894041056        1.1576158131        9.8557102571
  C         8.7537754272        3.7700198261       10.0894432158
  C         9.4123073873        3.3488727255        8.0812328525
  C        10.1811740414        1.6414060827        9.6945587402
  C         9.0356621775        4.9305101776        9.3108692905
  C         8.1969397045        4.1640679658       11.3378332410
  C         9.5413193852        4.6766462036        8.0599710954
  C         9.8126445861        2.7206647870        6.9316914314
  H         9.8878105027        1.1644006388       10.6772728023
  H        10.4538900179        0.7926757282        8.9798073439
  C        11.5392743429        2.4006568381        9.9895531760
  S         8.6404508734        6.3885419879       10.0736269878
  C         7.9879947540        5.4654928299       11.3987939559
  H         7.8262763867        3.4020190434       11.9988591060
  C         9.9783370758        5.3109504942        6.9244949176
  H         9.6384545474        1.6216970056        6.9426048524
  C        10.2988099199        3.3086606016        5.7881315002
  H        11.3038379484        3.4979501775       10.1626775430
  H        12.2962885954        2.3428650678        9.2288629329
  C        12.3664890456        1.9025176606       11.1817477609
  C         7.4450459492        6.2622619292       12.5877600088
  C        10.3450646408        4.6494102995        5.7160563157
  H        10.1989776330        6.3480064174        6.9301196179
  C        10.7296596259        2.8691374177        4.5592952718
  H        13.4149809585        2.1148685792       11.1216680557
  H        12.1673527006        0.7951783789       11.2486388677
  C        11.6857010880        2.3602854337       12.6053577872
  C         7.5976252329        7.6293552371       12.8312295231
  C         6.9138874893        5.4587534960       13.7648816863
  C        10.8553522719        5.3797066304        4.5523798363
  C        10.9857146841        3.9978448282        3.7646925391
  S        11.0902722375        1.3807779344        3.8884579496
  H        12.1387252702        3.3242390768       12.8729608220
  H        10.6098467543        2.6189778353       12.4279259959
  C        11.7623331002        1.4027523418       13.8101174619
  N         8.0526137233        8.5831346532       11.8914006537
  C         7.3051621293        8.1966467323       14.0877679625
  C         6.7584745206        5.9818749988       15.0268931200
  H         6.7821998320        4.4282804473       13.5949806889
  C        12.1743215172        6.0628719197        4.7961607517
  C         9.7203171071        6.2669665463        3.8935657990
  C        11.5188276035        3.6359373563        2.5416861284
  C        11.5534606290        2.2444008781        2.4092895331
  H        12.3735830813        0.5242005169       13.5556041741
  H        10.7783150147        1.0374023852       13.9364584832
  C        12.2315594197        2.1169084878       15.0803143119
  S         7.9748074182       10.0673335601       12.6677812047
  N         7.5818307850        9.5238893047       14.1590013345
  C         7.0822936375        7.4427608601       15.2481364406
  H         6.4856830984        5.3319687553       15.7923161285
  H        12.0421293415        6.6872486727        5.7078267607
  H        12.3915822902        6.7966547875        3.9879933582
  C        13.3941086469        5.1495297584        5.0058125594
  H         9.3470353697        6.8019465271        4.6909033038
  H        10.1245876582        7.1525030615        3.3619329670
  C         8.5675647104        5.4816853321        3.1545937807
  H        11.8733680010        4.4524400494        1.9141378626
  C        11.9217083853        1.5597496943        1.1608240359
  H        12.9280209725        2.9624099749       14.8803293979
  H        11.4988742974        2.5755560206       15.6453125432
  C        12.8706685558        1.0851496402       16.0320112028
  C         7.0314639847        8.0601489450       16.5322202708
  H        13.1276955184        4.4934687142        5.7678659058
  H        13.5577468128        4.4031753841        4.1670950910
  C        14.6790381764        5.8060681918        5.2199841836
  H         8.0891464722        4.8191725259        3.8384072586
  H         8.9281763922        4.8283976942        2.3239448195
  C         7.4939374223        6.3412821545        2.5950886625
  C        11.9943531738        0.1413003622        0.9694176234
  C        12.2792382580        2.3325941671       -0.0324911886
  H        13.8481432703        0.7204341553       15.5653553071
  H        12.2123196623        0.1965010817       16.0907372653
  C        13.0714649529        1.7247125199       17.3916131165
  H         7.3767029293        9.0675022635       16.4877290839
  C         6.6871963303        7.6657141614       17.8051602457
  H        14.4308971812        6.6606480566        5.8474750952
  H        15.1173691011        6.2287533004        4.3077535039
  C        15.6541955665        4.8310643581        5.8664913418
  H         7.0570483890        6.8176781828        3.4872834163
  H         7.7954283993        7.1612547364        1.9705406774
  C         6.4086090403        5.4507528944        1.9755804502
  N        11.7765036625       -0.8185395768        1.8716954634
  C        12.2353737641       -0.4917736023       -0.2719120280
  C        12.6030670363        1.7252988752       -1.2664607653
  H        12.2787149438        3.4295664447       -0.0767397435
  H        12.1915553731        1.7621710114       18.0676917605
  H        13.4542915575        2.7797100645       17.2974295338
  H        13.7699994012        1.1841859676       18.0897618131
  S         6.2458668185        6.0069073404       18.2352374944
  C         6.7343572145        8.6003971709       18.9239241276
  H        15.1501191924        4.1458162609        6.4440049971
  H        16.2317201884        4.2723216387        5.1565734675
  C        16.6182027632        5.5963708498        6.8157126869
  H         5.8129637814        4.7980274556        2.5944574047
  H         6.8930217461        4.7698501469        1.2526478643
  C         5.4525046255        6.2393297262        1.1834843438
  S        11.8858592767       -2.3248260474        1.2371897011
  N        12.3736756178       -1.8849832610       -0.2672000450
  C        12.3770948511        0.2457427443       -1.4733015770
  H        12.7207284539        2.4085953103       -2.0672755718
  C         6.0826696781        6.6873804739       19.8508427229
  N         6.2951779372        7.9886818322       20.0369970509
  O         6.9933055717        9.8028923490       18.7610059055
  H        17.0895105108        6.3122367153        6.1500401566
  H        16.0589125692        6.1113546838        7.5592245638
  C        17.6950373339        4.7876385270        7.3934022346
  H         6.0847070031        6.6928057496        0.4191974881
  H         4.8104998001        5.5233827657        0.7223509953
  C         4.6026502081        7.1357554102        2.0467082883
  C        12.5614076967       -0.5356822441       -2.6847156773
  S         5.5660581013        5.8785452069       21.2641114735
  C         6.1994172414        8.7012926807       21.2789739178
  H        17.4204521263        4.4537581741        8.3949424646
  H        17.9510950128        3.9095081196        6.7577265587
  C        18.9851698171        5.5857646549        7.4997874854
  H         4.9009206826        7.2622275094        3.0502713592
  H         3.7747494652        6.4690926548        2.1899823298
  C         3.9832722074        8.4483934649        1.4535218532
  H        12.2849660452       -1.5921481262       -2.6992622951
  C        13.1710435778       -0.1084217944       -3.8362721833
  H         5.3254583403        8.3849904724       21.8529038920
  H         6.0687393625        9.7805747561       21.0198794151
  C         7.5466136498        8.5371894600       22.0596279188
  H        19.4637416100        5.2337735804        8.3419535183
  H        18.8548205809        6.6772224102        7.5194530877
  C        19.8483611779        5.3002452051        6.2606974902
  H         4.8548987740        9.0471011578        1.1743078455
  H         3.3391861743        8.1725496781        0.6065008377
  C         3.1693864921        9.1966665612        2.5133528547
  S        13.7890957334        1.4378914399       -4.2406637871
  C        13.2921793621       -1.1788881934       -4.9031272855
  H         8.3609711941        8.1655637223       21.4823187520
  H         7.5029757176        7.9344998031       22.9565712516
  H         7.7798111646        9.4985867339       22.3584507387
  H        20.2608513522        4.3350850331        6.3720336427
  H        19.3413015185        5.5302922450        5.3100077542
  H        20.7016322451        5.9069576352        6.2024425164
  H         2.4519128127        8.5097937090        2.9613446515
  H         3.8123603327        9.7452376248        3.2873729764
  H         2.6794570351       10.0811734904        2.0304802407
  C        14.1652563792        0.7320824811       -5.8017245857
  N        13.8364876453       -0.5317750132       -5.9953567903
  O        12.7838404128       -2.3059122959       -4.8475524472
  S        14.8207115175        1.6773454158       -7.1727098941
  C        13.9477705937       -1.3256824018       -7.2013656045
  H        14.0328258070       -2.3557477267       -6.9594521836
  H        14.9384474028       -1.2347168069       -7.7188643833
  C        12.7591724663       -1.3146525932       -8.1753651322
  H        11.7980089687       -1.5727814976       -7.7360454287
  H        13.0054740944       -2.0201947073       -8.9633179373
  H        12.6704409916       -0.3260050391       -8.5476901352
  H        -1.3888530208       12.6376708555       16.8888406333
  C        -1.6853388199       13.6339661247       16.4978469367
  H        -0.9420968176       14.0234459382       15.8670432196
  C        -2.1463969445       14.5138380280       17.6200607845
  C        -2.7789731871       13.3808855643       15.5449734673
  C        -2.6302996789       13.7837476749       18.8383735262
  H        -1.2193469300       15.0738909876       17.8276069550
  H        -2.8213513279       15.2130554713       17.1470288851
  H        -2.9186886944       14.2044975402       14.8122623439
  H        -2.6851566595       12.4318549044       15.0631520013
  H        -3.6970781277       13.3421529828       16.1850474942
  C        -1.3615985830       13.5972629280       19.7996666266
  H        -3.0646617870       12.9413157960       18.5290499557
  H        -3.3810324057       14.3955166422       19.2795495314
  C        -1.9101431545       13.1832202251       21.1986724842
  H        -0.6455297874       12.9529441323       19.3737356838
  H        -0.7862456107       14.5513846799       19.8564896853
  C        -0.8345883193       12.5037844966       22.0301681870
  H        -2.7001146602       12.4396615040       21.1465514655
  H        -2.4251803694       13.9798091296       21.7310082672
  C         0.2681722206       13.5047597483       22.5029606395
  H        -1.2231365459       11.9032345476       22.8556305330
  H        -0.2457771769       11.8199733851       21.4078467173
  C         1.4227869125       12.8112007626       23.2265885056
  H         0.7781627503       14.0508985431       21.6354953348
  H        -0.2946479431       14.1857594594       23.1574279794
  C         1.9495258283       11.5357465953       22.6044369319
  C         1.0827707005       12.1413184855       24.5228854111
  C         2.5728285352       13.8277330240       23.4372302006
  C         1.6620560797       10.4385787625       23.3331419337
  C         2.3581145786       11.1597629174       21.3651961399
  C         1.2100636372       10.8094957551       24.6127471298
  C         0.5542628724       12.7211352998       25.6606082653
  H         3.0030524042       14.2345491878       22.5016531182
  H         2.1055067976       14.6085172619       24.0745148272
  C         3.8473055956       13.3375164120       24.1310656093
  S         1.9975824140        8.9146455363       22.6866531359
  C         2.4197807798        9.7787522772       21.2362787232
  H         2.3832769195       11.9791838314       20.6301188333
  C         0.9387464474       10.1474934173       25.7508586210
  H         0.3829438268       13.8082044150       25.5727970277
  C         0.2420100382       12.0762151012       26.8585479210
  H         4.2164736711       12.3913660804       23.7018633619
  H         3.5481617792       13.0794716185       25.1405654557
  C         4.9171582092       14.3526723503       24.4422223164
  C         2.8984807926        9.1469337322       20.0008705240
  C         0.4201599820       10.7060224270       26.9498411285
  H         1.1180768259        9.0306905019       25.7458385083
  C        -0.1812334771       12.4144152991       28.1124123202
  H         5.7312192716       13.9341925152       25.0640268137
  H         4.5115031951       15.2337448289       24.9162794376
  C         5.4949940418       15.0779323494       23.1967116735
  C         2.7347846572        7.8127819257       19.6624488449
  C         3.3866254977       10.0896947275       18.9669916861
  C         0.1144631101        9.9403625233       28.1732968163
  C        -0.3530353443       11.2799460812       28.8714299710
  S        -0.7246706719       13.8785437965       28.8400394849
  H         6.1631941101       15.9240349795       23.5973973381
  H         4.7743981366       15.6346221159       22.6378446862
  C         6.3896123867       14.1636528975       22.3660484828
  N         2.3144874557        6.8719687520       20.5166305090
  C         2.8729508219        7.3447945235       18.3514709834
  C         3.6715988490        9.5276519382       17.7187917379
  H         3.5075168039       11.1362105416       19.1619865107
  C         1.3438982705        9.3429273393       28.8183232477
  C        -1.0371709791        8.9208780441       27.9457361908
  C        -0.7159149601       11.6953787576       30.2199574559
  C        -0.8648136617       13.0568125438       30.3114169860
  H         7.2065392675       14.7581916536       21.9467066371
  H         6.6812926262       13.3939114122       23.1242702578
  C         5.6662235200       13.5562105754       21.0977613246
  S         2.0459779223        5.5358895808       19.6862178101
  N         2.5347914098        5.9871447203       18.2337226056
  C         3.3021485646        8.1630227934       17.2709065913
  H         4.1573595248       10.1378755735       16.9554080648
  H         1.7157647878        8.4246546215       28.4721356239
  H         0.9998037631        9.1530061357       29.8518779950
  C         2.5510303167       10.2676690375       28.9637660955
  H        -0.7206310173        8.2372348753       27.0741713155
  H        -1.2099997376        8.3415904621       28.8037986243
  C        -2.3646311284        9.5916426726       27.5871322002
  H        -0.8137526387       10.9946796929       31.0296799032
  C        -1.0903554773       13.8306627569       31.5959669935
  H         5.1018312088       14.2596868048       20.5044717050
  H         5.0039503617       12.7885656029       21.4238965521
  C         6.7323020215       12.9151036465       20.1451337442
  C         3.3541723020        7.6242072046       15.9798055360
  H         2.9530390028       10.6708268175       28.0718755703
  H         2.3001959753       11.1329612161       29.6163550361
  C         3.5719272624        9.4603717620       29.7181377772
  H        -2.2308166479       10.2079417893       26.6933452527
  H        -2.5786039649       10.2935780975       28.4570755126
  C        -3.5780383328        8.6747896953       27.3751908311
  C        -1.2030607325       15.2453875398       31.7371875159
  C        -1.3313636789       13.0561398088       32.8488025880
  H         7.3836840591       12.2918621386       20.7784125150
  H         6.1596754431       12.2593055934       19.4579726094
  C         7.4598153700       13.9208551925       19.2180762149
  H         2.9666808950        6.5995809571       15.8890296098
  C         3.6979917713        8.1127189676       14.7686962430
  H         4.1113110158        8.8658044929       28.9822092387
  H         3.1314664248        8.6895841497       30.3618953393
  C         4.5430126634       10.3439388194       30.4412393060
  H        -3.5139880576        8.1056496728       26.4285934461
  H        -3.6154815908        7.9938084612       28.2151998702
  C        -4.8672676312        9.4618671658       27.3380974668
  N        -0.9653753217       16.1778108281       30.7469141646
  C        -1.6791675427       15.8749149011       32.9263689289
  C        -1.7110557121       13.6393823472       33.9945387195
  H        -1.2437905195       11.9905465028       32.8096310328
  H         8.2700368189       14.5179117387       19.7470081063
  H         7.8898122399       13.3928220795       18.3470433919
  H         6.7938016522       14.5637478011       18.7313621157
  S         4.0202107457        9.7366558331       14.4580348780
  C         3.7911941151        7.1601370549       13.6585942790
  H         4.5850204721       11.3670279167       30.0839544497
  H         4.2286312749       10.3323041087       31.4897564540
  C         6.0142707106        9.7080690291       30.2913945306
  H        -4.8662764186       10.3602733775       27.9035617085
  H        -5.5456670719        8.7926134681       27.8700200639
  C        -5.3236815543        9.8221727047       25.9226888738
  S        -1.2654647679       17.6704128955       31.3056563072
  N        -1.8994042393       17.2083027587       32.7306437224
  C        -1.8862858115       15.1690178288       34.1312248266
  H        -1.8480731004       13.0434872610       34.8802151287
  C         4.1963151401        9.1631478947       12.7818103644
  N         4.0756973519        7.8304115141       12.5337628195
  O         3.8619248501        5.9631331934       13.7832245051
  H         6.7315580777       10.3875337935       30.6787738988
  H         6.2303996315        9.6048860670       29.2366744334
  C         6.0961431505        8.4036863622       31.1260294040
  H        -4.4907964771       10.3187487382       25.4302202426
  H        -5.4107579578        8.8740944699       25.4840204585
  C        -6.6537046115       10.6196115476       25.8241077376
  C        -2.2780828057       15.9932921161       35.2850793666
  S         4.8180448148       10.1277975337       11.4949050431
  C         4.0368636710        7.2125576342       11.2072865362
  H         6.8116462126        8.3454520460       31.9713784844
  H         5.1010203071        8.2957710905       31.6512484603
  C         6.6208223020        7.3225450809       30.1731068165
  H        -6.9578457437       10.7637762525       24.7836937741
  H        -6.4455028668       11.6039177821       26.2071367140
  C        -7.8690634581        9.9850268834       26.4742144187
  H        -2.0434344953       17.0459522735       35.1826113743
  C        -2.8334798775       15.6363536932       36.4899791294
  H         4.6672397297        7.6065386417       10.4332930118
  H         4.4792001738        6.2417829090       11.4215916162
  C         2.6082386798        6.9293391959       10.5809574587
  H         7.4974799142        7.6954485785       29.6351259732
  H         5.8617652143        7.1425747759       29.4061367635
  C         6.8479008026        6.1039545375       30.9890736813
  H        -7.8990655006        8.9238309847       26.3954764257
  H        -7.6818961981       10.0058624977       27.5520143029
  C        -9.1700842910       10.6471343483       26.1206798744
  S        -3.5549931165       14.0841720772       36.8497746569
  C        -2.8382040052       16.6368902235       37.5800881527
  H         2.2804149056        7.5198227870        9.7245331490
  H         2.4312895103        5.8376521728       10.4179296333
  H         2.0037005168        7.1056481597       11.4361909378
  H         5.8705173135        5.9619501137       31.4986054501
  H         7.6535576415        6.2529937889       31.7769690231
  H         7.1012465590        5.2445425198       30.3582771334
  H        -9.0122127404       11.7381359867       26.1631619941
  H        -9.8494783372       10.3826076325       26.9210133205
  H        -9.6304577233       10.4660279916       25.1242893433
  C        -3.9106589310       14.7712165382       38.4094929895
  N        -3.5299228884       16.0912454826       38.5795448228
  O        -2.3329931287       17.7058310707       37.4791504999
  S        -4.4923054694       13.8216001033       39.7234471410
  C        -3.5895781442       16.6750844002       39.8979622646
  H        -3.5755406561       17.8005755593       39.8226201361
  H        -4.5862850681       16.4226936968       40.2932831264
  C        -2.4688322706       16.2211497135       40.7443583761
  H        -1.5095823077       16.0482802348       40.2534038420
  H        -2.2432776471       17.0135133096       41.4782510316
  H        -2.6326129578       15.4025254977       41.3337152991
