352
i=
  H         2.6787930295        1.8113165133       13.8907910284
  C         3.5442512863        1.9754696498       13.2239973031
  H         4.0023687559        0.9505351265       13.2139891800
  C         3.1461897238        2.3631380065       11.8013991794
  C         4.2588239329        2.9932180886       14.1064351136
  C         4.2849501319        2.4158744754       10.7535083918
  H         2.6690804171        3.3377701575       11.9222388701
  H         2.3279943312        1.6636412721       11.5291825415
  H         3.5161334369        3.6355243983       14.5171803312
  H         4.6854089150        3.8330672773       13.5351441194
  H         4.9333053848        2.5738047742       14.8464280205
  C         4.7002117662        1.0931464498       10.0813332774
  H         4.1543737226        3.1036884431        9.9629122351
  H         5.1617128302        2.8092143908       11.2304984426
  C         5.3593117018        1.3146982701        8.7224611032
  H         3.9341265591        0.3889357501        9.9966111079
  H         5.3965604285        0.5550125493       10.6554036046
  C         6.5794358459        2.2825205944        8.7689304705
  H         4.6532959405        1.7479909279        8.0478242000
  H         5.5275056882        0.4560863743        8.1071930167
  C         7.9387097378        1.7219242039        9.1716809681
  H         6.6434529557        2.8302626841        7.8746019925
  H         6.3967033461        3.0600458019        9.4980876395
  C         9.2052919455        2.6443294571        9.3541511487
  H         8.1390445192        0.8661164859        8.5369397379
  H         7.7430580151        1.3194280775       10.1852100822
  C         8.8990375330        4.0105976862       10.0091469252
  C         9.6080322714        3.4163740400        8.0795793366
  C        10.4448857814        1.9293910638       10.0338601467
  C         9.2280854826        5.1148235642        9.2279547845
  C         8.3471722492        4.4530715782       11.2534372120
  C         9.6067434222        4.7515277064        7.9668239108
  C         9.9835996985        2.7205379405        6.9549671939
  H         9.9809192823        1.3394336561       10.8196381737
  H        10.9273361133        1.3007205864        9.2572796491
  C        11.4516187496        2.9034120433       10.7503599168
  S         8.8955729751        6.6521833120        9.9594220404
  C         8.2634141628        5.7961683704       11.3494008425
  H         8.1109076719        3.6644117693       11.9531245127
  C         9.9702413474        5.3517786775        6.7941164035
  H         9.8946906831        1.6362845019        6.9806061735
  C        10.3359162122        3.2845965337        5.7964958952
  H        11.0373233385        3.6356942398       11.3613102831
  H        11.9047289534        3.5968123064       10.0004575192
  C        12.5309931979        2.2477669426       11.6214477188
  C         7.7722767182        6.5402126094       12.5349704489
  C        10.2655382051        4.6335702526        5.6535634977
  H         9.9151860179        6.4360107183        6.8142787769
  C        10.8003357514        2.8309456692        4.5881351354
  H        13.4486987576        2.6973997602       11.5790460666
  H        12.8666762637        1.2543500633       11.2484333775
  C        12.1200248929        1.9058861082       13.0333227601
  C         7.9208703599        7.9304800137       12.7816897155
  C         7.1435415905        5.7807611685       13.6231797183
  C        10.6612054186        5.2423474326        4.3859776825
  C        10.9411092360        3.9405057125        3.7404737524
  S        11.0500603975        1.3169697563        3.8450555280
  H        11.3941866174        2.6327993220       13.2041176884
  H        11.6440481948        0.9784934261       12.9418681254
  C        13.1414485576        1.8290498298       14.2119181390
  N         8.4705176049        8.8570479620       11.9059042447
  C         7.5464370750        8.5025111042       14.0093152042
  C         6.9011369158        6.3703297534       14.8952557952
  H         6.9119920985        4.7082660173       13.4742961722
  C        11.9893269443        6.1011921138        4.4380071972
  C         9.3923710209        6.0170852793        3.7119499325
  C        11.2721781285        3.4731181973        2.4427018818
  C        11.3147046083        2.1234114715        2.3710489722
  H        13.1153266683        2.8085926746       14.6850472558
  H        14.1280263787        1.4715582377       13.7740266147
  C        12.8194654187        0.8231369593       15.3636371617
  S         8.6192509472       10.3126704340       12.6592101834
  N         7.7992183194        9.9195965308       14.0086029889
  C         7.0176982805        7.7886668500       15.1547963308
  H         6.4633695585        5.7437786515       15.6590937845
  H        11.8627457300        7.0552917938        5.0053815558
  H        12.2632311257        6.3772922689        3.4045253410
  C        13.2300494391        5.3327175595        5.0444715136
  H         8.9352858284        6.5848327001        4.4946041828
  H         9.6097576600        6.6891836489        2.9129453533
  C         8.2722657391        5.0254792311        3.2092750338
  H        11.2972901703        4.1457654517        1.6136494287
  C        11.7088015587        1.4048431214        1.1135055516
  H        12.5183188572       -0.1450799053       15.0467302933
  H        13.6736465718        0.9152727907       16.0401056217
  C        11.6253825644        1.4746339537       16.1132261009
  C         6.7110963931        8.3514564829       16.3971974917
  H        13.0089590803        4.8072027531        5.9354671453
  H        13.6490622886        4.5856473714        4.3183842380
  C        14.3808522410        6.2411114770        5.3318573397
  H         7.7121496059        4.5759549609        4.0647258523
  H         8.6581950354        4.2217839677        2.6735861198
  C         7.2428374175        5.6097477908        2.2971747098
  C        11.8027910024        0.0371660592        0.9158512625
  C        12.1113697547        2.2026838966       -0.1137990892
  H        10.7269864941        0.8557041124       16.3086723606
  H        11.1792428374        2.2651782270       15.5257680935
  C        12.1851421097        2.0293010647       17.4511468240
  H         6.7521117785        9.4131537098       16.2689925068
  C         6.3490257178        7.8345587272       17.6315694511
  H        14.0610915690        6.9572027439        6.1165951140
  H        14.7270652513        6.7111088496        4.4176380185
  C        15.5290159900        5.3683572252        5.8996300981
  H         7.7151650249        6.1666761836        1.4609151071
  H         6.6924665041        4.7739580864        1.9131293284
  C         6.2522681568        6.5417262219        2.9781488759
  N        11.4109625001       -0.8861848069        1.8181196663
  C        12.1084909638       -0.5288338099       -0.2939321463
  C        12.3784633339        1.6704145770       -1.3573296798
  H        12.0791594710        3.2362043655        0.0738816979
  H        11.3430553567        1.9942469683       18.2581604259
  H        12.4843691032        3.0213576365       17.3667364781
  H        12.9130922803        1.4142168682       17.8860634373
  S         6.2284679816        6.2128872288       18.0787905323
  C         6.1907958661        8.8418941437       18.7277448216
  H        15.0722442932        4.6953555316        6.6535377793
  H        15.9760311100        4.7485090605        5.1484145720
  C        16.5857022584        6.1070040503        6.7049487227
  H         6.7441558583        7.4092043625        3.5117269635
  H         5.5510336605        6.0172662403        3.6682694124
  C         5.2414325905        7.1732278539        2.0896103252
  S        11.7518689430       -2.3380382412        1.1940424970
  N        12.0425741296       -1.9204606960       -0.3101989904
  C        12.4555429592        0.2160427127       -1.4734171041
  H        12.6249151599        2.2820236682       -2.2111324200
  C         5.7412991219        6.7641401529       19.6347347132
  N         5.8556796957        8.1135612203       19.8195590619
  O         6.4235817104       10.0316500594       18.5881645556
  H        17.1117196519        6.9101682670        6.1958837195
  H        16.1504714364        6.7158006633        7.4768181289
  C        17.5526702528        5.1715161365        7.3544700915
  H         5.6986408236        7.9047907763        1.4799205417
  H         4.7739558202        6.5310933064        1.4119240986
  C         4.0703438696        7.9440582303        2.6889083882
  C        12.7587179226       -0.5628590237       -2.6343844577
  S         5.2890540608        5.7126303322       20.9686548813
  C         5.8286099895        8.7982240557       21.1226291493
  H        17.1235209109        4.8254810806        8.3179401787
  H        17.7202278770        4.2263971417        6.7898041601
  C        18.9040073085        5.7967893210        7.6709237906
  H         4.2884747431        7.9767653831        3.7313710719
  H         3.1923011661        7.3160718676        2.6831165405
  C         3.8505446053        9.3999939168        2.1546578277
  H        12.6834522141       -1.6402347482       -2.6110804671
  C        13.1953227610       -0.1913704301       -3.8833930707
  H         5.4567995105        8.1511611631       21.8999773696
  H         5.0796526040        9.5806421403       21.0324417971
  C         7.2503505511        9.1738881418       21.4818848233
  H        19.4906366558        5.1567450122        8.3876620593
  H        18.6482980083        6.7801211893        8.0627371517
  C        19.7262629367        5.9855982399        6.3584261544
  H         2.9311079057        9.9123786568        2.5356922128
  H         4.6527641783       10.0186326997        2.4944785330
  C         3.6297295325        9.5260716247        0.6886027324
  S        13.7981995569        1.4282546590       -4.2627106930
  C        13.3648846040       -1.1921048446       -4.9894395170
  H         7.3454540939        9.5113193803       22.5207366389
  H         7.5963049918       10.0416978916       20.8762982282
  H         7.8614567809        8.3702795831       21.1975797391
  H        19.0844227574        6.4894863146        5.5955909045
  H        20.6963678754        6.5482309178        6.3748860318
  H        20.1007646780        5.0832300937        6.0070482941
  H         4.1743700656       10.4183711531        0.2703678231
  H         3.9368644299        8.6806799572        0.1580310228
  H         2.6083721675        9.6615272708        0.3378539851
  C        14.2211736486        0.7722607192       -5.8638737963
  N        14.0397107453       -0.5449597661       -6.0242937898
  O        12.9611895149       -2.3377840599       -4.9999052015
  S        14.8733672207        1.7270248640       -7.1990432955
  C        14.2726825453       -1.3912751846       -7.2822085254
  H        14.5138837816       -2.4551384062       -7.0131557177
  H        15.0289558289       -0.9845602454       -7.8728564323
  C        13.0142361107       -1.3791383459       -8.0725834441
  H        12.4912470872       -2.2666404691       -7.9379252324
  H        13.2789553111       -1.4326342284       -9.1067572990
  H        12.4031151022       -0.4896106472       -7.9147085965
  H        -3.1071335490       14.7906547412       16.2842068249
  C        -2.7290813130       13.8418593741       16.4326670429
  H        -3.6322386333       13.2756713044       16.6109937010
  C        -1.7051019195       13.8399253690       17.6485902084
  C        -2.1122731139       13.2780291934       15.1572860673
  C        -2.2796796367       14.2174615321       19.0818636767
  H        -1.3128795913       12.8573551109       17.8712825883
  H        -0.8583605100       14.5342520273       17.4362762211
  H        -2.5836272542       13.7173009625       14.2981531088
  H        -1.0849118450       13.4797051312       15.1338220565
  H        -2.3353834146       12.1829683668       15.0712011718
  C        -2.1375933950       13.1830353457       20.1784965542
  H        -3.3483575917       14.4139799179       19.0601200254
  H        -1.8798822746       15.0922858678       19.4226707284
  C        -2.6645299004       13.5767851116       21.5657376346
  H        -2.5314930138       12.2307364777       19.8053108238
  H        -1.0937772809       12.9358113773       20.3354793332
  C        -1.7027653282       12.9904329707       22.5604252338
  H        -3.6588001440       13.1574490085       21.7032602704
  H        -2.6951863467       14.6628006664       21.7168266935
  C        -0.3782779451       13.7830011331       22.7069704872
  H        -2.2154561963       12.7289298265       23.5081192510
  H        -1.5935413373       11.9594957286       22.2107649903
  C         0.8201345432       13.0322095128       23.4109503368
  H         0.0096160378       14.0799541384       21.7316861037
  H        -0.6438804276       14.7353413119       23.1828413095
  C         1.1496100103       11.7615641177       22.6667575088
  C         0.4098217459       12.3617554084       24.6409057153
  C         2.0889891472       13.9846807163       23.6074743306
  C         0.8788757478       10.6180467952       23.4534137594
  C         1.7538318928       11.4227885030       21.4658634403
  C         0.4386934703       11.0104552620       24.6890967057
  C         0.0407661686       13.0019724898       25.8663910001
  H         2.3022797584       14.4318210813       22.6470831434
  H         1.8792038353       14.8510112496       24.1592422469
  C         3.3345134463       13.3928687470       24.1743377541
  S         1.2253055232        9.1312697621       22.6366538991
  C         1.7759082612       10.0522376951       21.3147362017
  H         1.9700901545       12.2218169725       20.7279359788
  C         0.1079433578       10.3447181175       25.8409355225
  H        -0.0955060579       14.0812413358       25.9722761938
  C        -0.4000939415       12.3059424564       27.0159774516
  H         3.4656404794       12.3519933216       23.7834019085
  H         3.0802647888       13.2578786152       25.2233305909
  C         4.6218821580       14.2394233374       24.2706159096
  C         2.3335621675        9.3671405253       20.0682312685
  C        -0.3726654751       10.9440671310       27.0473003156
  H         0.0460548806        9.2717013114       25.7977408079
  C        -0.7495529245       12.6536675709       28.2506719244
  H         5.3336354060       13.6774455349       24.9067258342
  H         4.3832643144       15.2315411307       24.7681333535
  C         5.3401967555       14.4001572748       22.9591689669
  C         2.4088831612        7.9754626939       19.8400990452
  C         2.8817057885       10.2210047904       18.9398694584
  C        -0.7519629967       10.2499160388       28.2689986230
  C        -0.9961210083       11.5621831943       29.0395217419
  S        -0.9418104959       14.0861626221       29.1694826436
  H         6.2288004301       15.0385422502       23.1631646476
  H         4.7681473424       14.9797613466       22.2571255102
  C         5.7815265828       13.0768670448       22.3431307262
  N         2.3140913207        6.9445727442       20.7885163154
  C         2.6637553261        7.4852040554       18.5405477715
  C         3.1453228338        9.6920983589       17.6564768053
  H         3.3107619250       11.2024139827       19.0751559028
  C         0.3961342665        9.4159319550       28.8824490831
  C        -1.9592205853        9.3737505194       28.0488322298
  C        -1.5581431650       11.8922424740       30.2636367371
  C        -1.5100167997       13.2324767832       30.5366469952
  H         6.8762774111       12.7812863488       22.3645596574
  H         5.3165078084       12.2171024255       22.8172941034
  C         5.5318991261       12.8826444670       20.7945729362
  S         2.2404713328        5.5338365129       20.0118281744
  N         2.6211918640        6.0775726570       18.5461687091
  C         2.9979536346        8.2701821562       17.4071563638
  H         3.4826443675       10.3276295448       16.7811449672
  H         0.7382342442        8.6213645182       28.2127456112
  H        -0.0762805483        8.9468451054       29.7541673852
  C         1.5743436810       10.1061974329       29.4593307457
  H        -1.7093254444        8.6350781544       27.3097675034
  H        -2.1543139566        8.8652753031       28.9487530772
  C        -3.1896536529       10.2758056752       27.5611167936
  H        -1.8550652289       11.1415317179       30.9899881323
  C        -1.7713127188       14.0011973947       31.8285922010
  H         4.4887174722       13.1794981554       20.6145205156
  H         5.5863014918       11.8258057162       20.5054028051
  C         6.6821839207       13.7220093948       20.1599479336
  C         3.2408845881        7.6464640767       16.1068786107
  H         1.9392741065       10.9296806885       28.7335770365
  H         1.4310468643       10.5853449247       30.4357458819
  C         2.5908994198        9.0942774962       29.9675983571
  H        -2.8585613934       10.8452818841       26.6835837969
  H        -3.4751244166       11.0140919202       28.3065099671
  C        -4.4356909873        9.4045587207       27.1776129258
  C        -1.8350878445       15.4257811107       32.0012894044
  C        -2.0622050761       13.2234266264       33.0900677699
  H         6.6804879235       14.7463475637       20.4375618744
  H         7.6791104379       13.3014553436       20.5572856420
  C         6.7859917671       13.6220644801       18.6257537179
  H         2.8985111564        6.6209394445       16.0694283464
  C         3.5940190601        8.2056562464       14.9308800671
  H         2.8533966923        8.3568395680       29.1741578938
  H         2.1735917978        8.4708458303       30.7468065965
  C         3.8904580689        9.6970420950       30.5089119518
  H        -4.1029510313        8.7909266729       26.2922497837
  H        -4.7967818682        8.7690081471       28.0124957225
  C        -5.5897934683       10.3504966018       26.6785518076
  N        -1.6773675093       16.3886661345       30.9811444354
  C        -2.1461430623       16.0177884974       33.1797233830
  C        -2.3366883557       13.8407289831       34.2883887148
  H        -1.9893203583       12.1234773945       33.0589284448
  H         7.7605868986       13.9288626579       18.2654820852
  H         6.6055723121       12.6154766392       18.2999296799
  H         6.0176527031       14.2690436487       18.1586868942
  S         4.1833565481        9.7314640428       14.4690221471
  C         3.4552493884        7.2860920688       13.8007852807
  H         4.1215636616       10.5345029402       29.8306668011
  H         3.7022405862       10.1683215442       31.4908215829
  C         4.9579503328        8.5248835037       30.4876712309
  H        -5.1999594330       11.0346761499       25.9128661427
  H        -5.8901717303       10.9672552423       27.4998390914
  C        -6.8019244628        9.6284549748       26.1718402654
  S        -1.8495320776       17.8468143644       31.6371065960
  N        -2.2307054842       17.3745039005       33.0764473005
  C        -2.4081097566       15.3108102634       34.3791601077
  H        -2.6424658037       13.2526735573       35.2238122751
  C         4.3209635312        9.1153533949       12.8310223699
  N         3.9140655969        7.8761994025       12.6731598867
  O         3.2472546769        6.0767585325       13.9338853467
  H         5.9218318613        9.0973878161       30.3898754716
  H         4.8707168347        8.0140332653       29.5381292647
  C         4.9303846454        7.6708782445       31.7190179555
  H        -6.5920664368        8.8944632873       25.4629512685
  H        -7.2402541298        9.0921265570       27.0301889503
  C        -7.7042332628       10.5673144399       25.3431081864
  C        -2.6974604659       16.0581958526       35.5993618332
  S         5.0728406909        9.9718706400       11.5295082667
  C         4.1748406269        7.2525934332       11.3757933743
  H         5.3907192766        8.0580262546       32.6409149349
  H         3.9602574497        7.3230391355       31.9688435805
  C         5.6258903771        6.2918236225       31.4975978329
  H        -7.1952998552       10.9257743666       24.4828702384
  H        -7.7131710197       11.4123222458       25.9344702202
  C        -9.1136750576        9.8943569727       25.1029339396
  H        -2.4380061375       17.0748586761       35.4309858361
  C        -3.0715387856       15.7333491314       36.8706402372
  H         4.2480936197        7.8208447781       10.4752377566
  H         5.0792790114        6.7154738541       11.4871060749
  C         3.0051370187        6.3752484640       10.9090724585
  H         4.8817620219        5.6103768292       31.0851789930
  H         5.6600309199        5.7650535132       32.4560666812
  C         6.9288623997        6.3188691649       30.6966725875
  H        -9.5888441540       10.3701183596       24.2881809816
  H        -9.0687139517        8.8557428195       24.7121220962
  C        -9.9169423302        9.9855745472       26.3969538526
  S        -3.4798758684       14.2930657348       37.6233679236
  C        -3.2981559997       16.9608748672       37.7053625484
  H         3.0146145388        6.0985860780        9.8521320602
  H         3.0770938166        5.4245763365       11.4310234810
  H         1.9925061599        6.8043928327       11.0852098155
  H         7.6089031818        7.1397920310       30.7965667856
  H         6.6542242018        6.1526800193       29.6644429819
  H         7.4588177502        5.4924852562       30.9800238451
  H       -10.4731323942       10.9001443032       26.4393021245
  H        -9.2040282004        9.8936618221       27.2315164065
  H       -10.5698651003        9.1823436975       26.4903183668
  C        -3.7203678262       15.3064946697       39.1320998426
  N        -3.7552078982       16.6375421133       38.9037087386
  O        -2.9069697624       18.0345786491       37.3537122078
  S        -4.0995688229       14.6605288405       40.7247144124
  C        -3.9791782959       17.5916546134       39.9935898948
  H        -4.4329716462       18.4199784521       39.4250769557
  H        -4.6779621277       17.1710911752       40.6915900440
  C        -2.6264921803       18.0016734372       40.7261587585
  H        -1.9977404970       18.6239970300       40.0780825545
  H        -2.9202817699       18.5517194327       41.6431763026
  H        -2.0666414824       17.1512578028       40.9495071762
