352
i=
  H         2.5720903853        2.9946420562       12.8544030518
  C         3.4804787126        2.3488017305       12.9188898926
  H         3.2326836893        1.2698817779       13.0011691399
  C         4.5036257241        2.5063337599       11.8396926990
  C         4.1108378281        2.5734031016       14.2387642350
  C         4.0318427740        2.0740684466       10.4294930401
  H         5.4438692492        1.9364119824       12.0897083778
  H         4.8661980995        3.4796070844       11.5036022095
  H         5.0929052415        3.0198263190       14.1348584829
  H         4.4978864213        1.5906241311       14.6555884877
  H         3.5442298401        3.0714238582       15.0840348091
  C         4.9744640047        1.0809633635        9.6658260955
  H         3.0396298104        1.5447936674       10.3826195435
  H         3.8430337600        2.9331012285        9.7791619817
  C         5.6041958512        1.7865754328        8.4992740968
  H         4.3657338204        0.2697499555        9.3553633333
  H         5.7931633217        0.8218186311       10.3600994881
  C         6.7867009926        2.7247995261        8.8458573908
  H         4.8489688939        2.1765210606        7.7792227531
  H         6.0194911346        0.9549277705        7.8673469974
  C         8.1283506644        1.9379861480        8.8934381644
  H         6.6801766808        3.4910799667        8.0256632232
  H         6.6161493710        3.2087729947        9.8202510967
  C         9.3829365104        2.8515989018        9.1630922118
  H         8.2980871057        1.3593936794        7.9956366828
  H         8.1434607538        1.0973259707        9.6594773694
  C         9.0250603569        4.1759543841        9.9028356513
  C         9.7567763316        3.5839916347        7.8866371034
  C        10.5887705258        2.1048994670        9.8039182787
  C         9.3146566306        5.2729455783        9.1277333203
  C         8.6390673545        4.5018167803       11.1863876902
  C         9.7628437088        4.9234774270        7.8508652589
  C        10.0669973234        3.0077874795        6.6658102221
  H        10.2338290981        1.6710748440       10.7038598090
  H        10.9422406168        1.2977452359        9.1629741048
  C        11.7413526862        2.9598482944       10.3068716168
  S         9.0384982496        6.8006679324        9.9705711227
  C         8.4864114532        5.9071054962       11.3294515039
  H         8.5276478506        3.7182986816       11.9340526378
  C        10.0328467977        5.5546678664        6.7272751367
  H        10.0664023330        1.9106368356        6.6237105688
  C        10.4337391240        3.6834482628        5.5487021197
  H        11.5185135281        3.9216683632       10.7627983982
  H        12.1755589747        3.3246582936        9.4073047614
  C        12.6804812792        2.2925750379       11.2578697952
  C         8.1699906466        6.5626229944       12.6487596848
  C        10.4253910022        5.0394485761        5.5066171930
  H        10.1116190321        6.6735159929        6.8429283156
  C        10.9119030815        3.3330173303        4.2961024874
  H        13.7012041788        2.6852745250       11.1435052230
  H        12.8527377474        1.2834529691       10.8300317697
  C        12.1824188782        2.3672943821       12.6607270636
  C         8.1474330179        7.9539775681       12.9790803623
  C         7.8478284661        5.6706402308       13.7862672760
  C        10.8327827781        5.7976179044        4.2753360298
  C        11.0562990794        4.4387358382        3.4705230335
  S        11.1405992096        1.8274940390        3.4450853039
  H        11.7051667864        3.2753949377       12.9065868244
  H        11.4025339753        1.5989570967       12.8091520886
  C        13.2065127623        2.1834469304       13.7039104454
  N         8.4153277629        8.9053626999       12.0043198219
  C         7.6931563486        8.4298363970       14.1790648862
  C         7.4181079374        6.1852139168       14.9540448290
  H         7.7180054297        4.5963679594       13.6821651389
  C        12.1064239274        6.6263978493        4.5387822619
  C         9.6418025837        6.6494378065        3.7349823335
  C        11.4178724555        4.0698042449        2.1310954290
  C        11.4680097095        2.6902301075        2.0305005404
  H        13.8841590624        2.9734185242       13.5754771768
  H        13.7167406869        1.2258943317       13.5673881731
  C        12.8002386474        2.4346254713       15.0950964761
  S         8.2382246680       10.3256656170       12.8012425641
  N         7.8753865522        9.7767482282       14.3121008318
  C         7.3271848835        7.6246842509       15.2866175339
  H         7.2113314979        5.5129980313       15.7521559829
  H        12.0346075467        7.3553541037        5.3559877510
  H        12.3908061281        7.1781768482        3.7154246006
  C        13.3117468388        5.7824478112        4.8737552815
  H         9.2684243061        7.3189696642        4.4986356977
  H         9.8478944645        7.3238328400        2.9137503744
  C         8.4442557177        5.7642275069        3.2957145266
  H        11.5277492688        4.8355730749        1.3302987910
  C        11.8142655111        1.8656519068        0.8203448886
  H        12.1354004682        3.2235054404       15.2139039763
  H        12.2068712098        1.5657406238       15.3951265228
  C        14.0399520376        2.5984882663       16.0714957123
  C         7.0411711284        8.1588692760       16.5877845916
  H        13.1831538351        5.1463284484        5.7304420703
  H        13.5898715245        5.0336769025        4.0568969868
  C        14.5316529216        6.6466935534        4.9154718506
  H         8.1709728406        5.1969702145        4.1911688034
  H         8.5747817276        5.1156128530        2.4647835839
  C         7.3627841713        6.6778249828        2.6790272377
  C        11.8657337731        0.4083326802        0.8042941498
  C        11.9901471461        2.5363277831       -0.4730391057
  H        14.7331432445        3.3511856302       15.7642681796
  H        14.5638194388        1.6634187190       16.1107306063
  C        13.5522233648        2.8912341653       17.5143116299
  H         6.9519299416        9.2276912609       16.4615818413
  C         6.6936800012        7.6659159807       17.8389327485
  H        14.4909579039        7.4016262849        5.6348883947
  H        14.5947849643        7.1774964666        3.9561621549
  C        15.7915898008        5.7823491556        5.1385268097
  H         7.0990061836        7.4274810008        3.4476252725
  H         7.6530688703        7.2119981344        1.7554333590
  C         6.1081738238        5.8156446389        2.3413194292
  N        11.3860677878       -0.4234756286        1.7901906760
  C        12.1753606496       -0.2765300522       -0.3606750239
  C        12.3061129217        1.8341911411       -1.6136190011
  H        12.0051727983        3.6108403936       -0.5372879652
  H        12.8001876174        2.2010020998       17.8918004253
  H        13.0972896564        3.9262659583       17.5962507646
  H        14.4424459168        2.8616806689       18.1239216888
  S         6.4389500833        6.0490605283       18.4310037746
  C         6.6897730830        8.7250929118       18.8614988714
  H        15.7295875584        4.8393132916        4.6185703224
  H        16.6249571268        6.3643523922        4.5920333896
  C        16.1202750181        5.5784451032        6.6393196941
  H         5.9067590515        5.0559916814        3.0528421821
  H         6.2322419655        5.2486368585        1.3798607832
  C         4.8827177369        6.6519611758        2.3200953502
  S        11.6442369153       -1.9227161283        1.3589991366
  N        12.1149817374       -1.6576444228       -0.1645861066
  C        12.3591690211        0.3578206332       -1.6263596444
  H        12.4001083562        2.4110382809       -2.5340756972
  C         6.0840350138        6.7943241401       20.0229496056
  N         6.3077171156        8.1528794703       20.0690592247
  O         6.9316085592        9.8850129695       18.6787855985
  H        16.0065740755        6.4815267599        7.1917136366
  H        15.4143164312        4.8925162362        7.0553642850
  C        17.4996585115        4.9770183588        6.7685445016
  H         4.0555911660        5.9636005374        2.2456055317
  H         4.7010003032        7.2115584280        3.2124014186
  C         4.8165229964        7.5209812652        1.1175998047
  C        12.7616929190       -0.4387948100       -2.6955352750
  S         5.7119450308        5.9054093530       21.4217983187
  C         6.2183121522        8.9947823166       21.2659054903
  H        17.5723942737        4.4861530259        7.7228195397
  H        17.7261742476        4.1514245523        6.0628452659
  C        18.5897541372        6.1199999022        6.8132478684
  H         4.6623907576        6.9416172582        0.1559161722
  H         5.7943146197        7.9978572901        1.0766160465
  C         3.6978258637        8.5933693588        1.3287434654
  H        12.4070304963       -1.4222888128       -2.6605000883
  C        13.2284891961       -0.2101047008       -3.9423447564
  H         5.3667886988        8.8427183965       21.8957809321
  H         6.1732032578       10.0727253899       20.9985128225
  C         7.5897753373        8.8348067251       21.9471006076
  H        18.7806579117        6.4407351426        7.8303652467
  H        18.2451480463        7.0046494966        6.2584414070
  C        19.9179788856        5.5956144233        6.0362469605
  H         3.2387500951        8.7832980806        0.3201665987
  H         2.9897431047        8.2351620322        2.0050300861
  C         4.2919619671        9.9446062918        1.6488641025
  S        13.6768090036        1.2749500008       -4.6874827190
  C        13.2791797993       -1.3871907690       -4.8272993264
  H         7.8874090186        9.7826479508       22.3847866083
  H         8.4724580903        8.4992029218       21.3928972108
  H         7.3944041190        8.0729194590       22.7981286951
  H        20.6533324748        5.3024100094        6.7571395463
  H        19.6460691794        4.7083891389        5.4402777933
  H        20.3657265448        6.3386315309        5.3229073432
  H         5.1460167011       10.1939218048        1.0756461706
  H         3.5250793042       10.7534241764        1.3407315873
  H         4.6228010451       10.0997861089        2.7020814315
  C        14.0852602558        0.2924540529       -6.1174032567
  N        13.8350966162       -1.0104937716       -5.9480481695
  O        13.0410286234       -2.5382884009       -4.4753480027
  S        14.7429073052        0.8200227562       -7.7275168834
  C        13.8840975551       -2.0352705716       -7.0497623376
  H        14.2386096842       -2.9395052337       -6.6032366788
  H        14.6406414122       -1.8343160544       -7.8065148294
  C        12.5985643171       -2.0298292393       -7.8877198606
  H        12.3114055912       -0.9988809940       -8.1507808087
  H        11.8267605560       -2.5883413305       -7.3292327536
  H        12.7261683959       -2.6186003349       -8.8022257484
  H        -3.4968189825       14.7189431849       16.0495399450
  C        -2.9021231409       13.8801858526       16.2650315156
  H        -3.6097290669       13.1333943534       16.5655072920
  C        -1.9624191073       14.0145006771       17.5134514902
  C        -2.0703631123       13.4236405531       15.0618191346
  C        -2.7385464594       13.6886886823       18.7975505520
  H        -1.1116441926       13.3458020240       17.3707303898
  H        -1.4423971473       14.9874589715       17.6704055699
  H        -1.4003522320       14.1944182829       14.7546439158
  H        -1.4627598800       12.6212499530       15.4687206489
  H        -2.5720659622       13.0293467199       14.2399416652
  C        -1.6932087197       13.2981919983       19.8385755968
  H        -3.5126580370       12.9134368311       18.6921381114
  H        -3.2394896209       14.5621845903       19.0930617074
  C        -1.9708845057       13.2604124291       21.3075780869
  H        -1.1734826219       12.3594354761       19.5350144313
  H        -0.9637429175       14.0532567504       19.8619449319
  C        -0.9215842804       12.5410416859       22.2742225008
  H        -2.9758037073       12.8107998858       21.2694039103
  H        -2.1349912613       14.3294522052       21.6559723513
  C         0.2496991362       13.5493857197       22.6066769981
  H        -1.5044355448       12.3460639813       23.2118212288
  H        -0.6683391386       11.5543427846       21.8828288371
  C         1.4761254665       12.8025985018       23.1069869270
  H         0.5147420798       13.9453477871       21.6101218881
  H        -0.1228124325       14.3974696944       23.1395868934
  C         1.7465855614       11.5104647953       22.4250165346
  C         1.1642219334       12.1551872708       24.4796703053
  C         2.8021559199       13.6164115009       23.0789565335
  C         1.6127107844       10.3771579312       23.2701530115
  C         2.2583921864       11.1951522431       21.1882961173
  C         1.1595261819       10.7871652551       24.5413676411
  C         0.6941841368       12.7577215899       25.6466601096
  H         3.0249336185       13.8692775657       22.0239440445
  H         2.5838484720       14.4701052732       23.7069235834
  C         3.9755373306       13.0332185189       23.8674882447
  S         1.9614259580        8.9112425376       22.4961103249
  C         2.4035525944        9.8198242500       21.0667264746
  H         2.4885442351       11.9706017878       20.4939261196
  C         0.7974899893       10.1188328484       25.7359676185
  H         0.6332369504       13.8635504420       25.6557260836
  C         0.3283554692       12.1290882800       26.8091816624
  H         4.1839719451       12.0089432320       23.6797565818
  H         3.5967832268       13.0677632201       24.9282069575
  C         5.1424463336       13.9854421973       23.7871443778
  C         2.8271170999        9.1733634790       19.8214765210
  C         0.2820835199       10.7795084800       26.9029071673
  H         0.9259209155        9.0386679859       25.7432650983
  C        -0.1649408419       12.4847247046       28.0581239428
  H         5.9668935955       13.7740855945       24.5058205618
  H         4.8304037898       14.9694765869       24.1917010634
  C         5.6827899896       14.3312643800       22.3767286504
  C         2.8724748439        7.8371041327       19.4681069354
  C         3.3796147170       10.0878614603       18.7750716515
  C        -0.1484045485       10.1389514773       28.1629660236
  C        -0.4591846777       11.4277052334       28.8785579059
  S        -0.3328757567       14.0324276844       28.7130915831
  H         6.6244056088       14.9136190965       22.3761256259
  H         4.9227456992       14.8141675354       21.7904976540
  C         6.2169983399       13.1230610058       21.6303213537
  N         2.3312294825        6.8221734162       20.2458984826
  C         3.2636538598        7.3741933278       18.2502751080
  C         3.8039373719        9.6007454005       17.5464930157
  H         3.5353489958       11.1731527840       18.8634394990
  C         0.9525508518        9.2461660465       28.7562672742
  C        -1.4378524497        9.2577638082       27.9882708592
  C        -1.0285195408       11.8695088613       30.0363961465
  C        -1.0028562837       13.2453565321       30.1171010144
  H         7.2272404293       12.7837177955       22.1281150494
  H         5.5823709818       12.2912580720       21.8338881826
  C         6.1920558276       13.1660032909       20.1002845543
  S         2.3039172555        5.4452603220       19.4086121559
  N         3.0039787302        6.0657773726       18.1152314021
  C         3.6952545254        8.1689538120       17.1857906339
  H         4.1384057249       10.3375013608       16.7803955018
  H         1.2764869799        8.5384190748       28.0044290625
  H         0.6105515719        8.6896519319       29.6015057758
  C         2.1934644752       10.0660424863       29.1468290460
  H        -1.2195335998        8.5198826916       27.2101858574
  H        -1.6105636641        8.7075983898       28.9380565043
  C        -2.6878569669       10.0257553454       27.6280958178
  H        -1.3787363850       11.1703348873       30.7742555572
  C        -1.2513585652       14.0554689132       31.3299715167
  H         5.6436875144       14.0080289952       19.8589443594
  H         5.5575717617       12.3627099566       19.8092860888
  C         7.5833615367       13.0399152592       19.5499906030
  C         3.8106468676        7.5896500710       15.9212466366
  H         2.6526504928       10.5382915269       28.2460454814
  H         2.0070155048       10.8789002640       29.8150588652
  C         3.1309011254        9.0455510818       29.7078429905
  H        -2.5143804381       10.5996359633       26.7303791058
  H        -3.0417485818       10.6775008101       28.5097956380
  C        -3.8504230622        9.0793431857       27.3134178093
  C        -1.3488452896       15.4478219868       31.3960039147
  C        -1.3917897460       13.3362941135       32.6651946045
  H         8.2137773062       13.7454675514       20.0380407479
  H         7.9069392106       12.0261154836       19.5905628724
  C         7.6045266885       13.3955754416       18.1377522790
  H         3.9253721060        6.5134035288       15.9434261521
  C         4.0702274847        8.1359156000       14.6777375767
  H         3.6110514027        8.4677459480       28.9247322002
  H         2.6392415680        8.2628564220       30.3361967054
  C         4.2248822409        9.7808845482       30.5179144353
  H        -3.7376018151        8.6791586903       26.2977896028
  H        -3.8324068691        8.2700136927       27.9153881423
  C        -5.2827174688        9.6900705705       27.3665482731
  N        -1.2881174673       16.2835268519       30.2543474997
  C        -1.5705288659       16.1896404255       32.5000123413
  C        -1.5945202523       14.1154935562       33.8196650617
  H        -1.3435734534       12.2840686246       32.6818892088
  H         7.8221678115       14.4679585777       18.1784336548
  H         8.4044828853       12.8530479459       17.6306100666
  H         6.6344185867       13.0734856423       17.6251759448
  S         4.4522110596        9.8466046621       14.2858066436
  C         4.2786320852        7.1519950924       13.5573590860
  H         4.4608923295       10.7155120224       29.9998076330
  H         3.7735529867       10.0346862125       31.4701920647
  C         5.5524567322        9.0389367476       30.5530505576
  H        -5.3771311429       10.2322324277       28.3317808122
  H        -6.0320887747        8.8858270719       27.3977449113
  C        -5.5883635697       10.5212446657       26.0688242685
  S        -1.3227456068       17.8191929288       30.7289488705
  N        -1.5634631922       17.5547345350       32.2832266294
  C        -1.8391628946       15.5974044729       33.7264739658
  H        -1.5741325429       13.5957749821       34.7575838347
  C         4.6346003541        9.2507639212       12.6078752724
  N         4.6810960361        7.8643207076       12.4469906095
  O         4.2970999971        5.9167625062       13.7067781166
  H         6.1669479947        9.6116925840       31.1578169859
  H         5.9842610217        9.0638000553       29.5929587134
  C         5.3848007589        7.5943716437       31.0675702136
  H        -4.8002956328       11.2357173000       25.8961927288
  H        -5.5258789382        9.8916007168       25.1598034798
  C        -6.9980910533       11.1520708877       26.0200602187
  C        -2.1985443656       16.3786924296       34.8555407013
  S         5.1957830803       10.2650503985       11.3429938354
  C         4.7280562734        7.2281881857       11.1051570986
  H         4.9106356856        7.6777524647       32.0918575905
  H         4.7192717972        7.0692347621       30.4286410456
  C         6.7576560819        6.8948770703       31.1671724696
  H        -6.9421504968       12.2794113604       25.7582278577
  H        -7.3531218207       11.0960824402       27.0402163239
  C        -7.9855180059       10.4769404276       24.9975789547
  H        -2.0198606835       17.4593979166       34.7751291390
  C        -2.6666287275       16.0767660495       36.1222794720
  H         5.4581195283        7.7384191695       10.4726998732
  H         5.0636095729        6.1626471171       11.1689306657
  C         3.2900504902        7.3202889823       10.5124946885
  H         7.0958364555        7.1668288584       32.1687103343
  H         7.5274417446        7.2930059825       30.5133460487
  C         6.5596412442        5.3454878410       30.9712050444
  H        -8.2344895577       11.1364009363       24.2139026240
  H        -7.4956917001        9.6106403801       24.5295976943
  C        -9.3238489931        9.9337983981       25.6075084068
  S        -2.9229642686       14.5252845581       36.8383309073
  C        -2.7496507086       17.2040095500       37.0811059556
  H         3.3403701842        7.2704305322        9.4624453160
  H         2.6754825106        6.3972559800       10.7694061366
  H         2.8092149277        8.2364572656       10.7903638569
  H         7.5571836248        4.8813064928       31.1044632055
  H         6.0554365751        4.9217786162       30.1032561067
  H         6.0257506184        4.9853655165       31.8699965696
  H        -9.8584141156       10.8090885298       25.9465949688
  H        -8.9944038959        9.4500789476       26.5049101759
  H        -9.8402574305        9.3114946380       24.9085106271
  C        -3.3883382614       15.3718565341       38.3322316381
  N        -3.2919514061       16.7357493682       38.2446269787
  O        -2.3733580358       18.3048218786       36.8051489892
  S        -4.2359805795       14.5865029792       39.6823790396
  C        -3.5120228062       17.4692217915       39.4706972102
  H        -3.7617391427       18.4969884288       39.1689029200
  H        -4.3887243769       17.1240789659       39.9344736181
  C        -2.2326488670       17.5222527916       40.2472297238
  H        -1.5562857565       18.2801178396       39.8729055989
  H        -2.4236407374       17.9004474381       41.2416954281
  H        -1.8199639696       16.5017336000       40.4755368712
