352
i=
  H         2.6390821482        3.5382461660       12.3933851433
  C         2.8397307050        2.4304415796       12.3472485173
  H         2.2047738820        1.9997228776       13.0271308385
  C         2.6349874228        1.8581315874       10.9937373430
  C         4.2465951011        2.1674637193       12.8512320461
  C         3.4924662979        2.4392180123        9.8779542508
  H         1.5194959821        1.9688064355       10.7262944312
  H         2.7781480326        0.7914799957       10.8739387799
  H         4.6584589614        1.3302989498       12.2262006017
  H         4.1465228819        1.8592655425       13.8937257616
  H         4.8101976155        3.0544938807       12.7358281605
  C         4.1874700947        1.2453004401        9.2073070827
  H         2.8734896375        3.0129533526        9.1164418785
  H         4.1712696453        3.1591050838       10.4021770802
  C         5.1243046852        1.5593643837        7.9847843201
  H         3.3899653995        0.6525360584        8.8230722030
  H         4.7227645105        0.6129266678        9.8795115002
  C         6.3627187378        2.4449807320        8.2409354343
  H         4.5465155579        2.0577311906        7.1854229623
  H         5.5148645604        0.6054161010        7.5190487372
  C         7.4434226375        1.7153003461        9.0950243231
  H         6.5688156453        2.9230349512        7.3063970654
  H         5.8806188270        3.2223544392        8.7900568422
  C         8.6232789627        2.5721727044        9.4605777037
  H         7.6973135366        0.7982778708        8.5163822854
  H         6.9450451218        1.5035081224       10.0345921439
  C         8.1657760336        3.9036652893       10.0424702745
  C         9.2210546606        3.2744584370        8.2585756229
  C         9.7860530143        1.8720625618       10.1673443212
  C         8.5244818529        5.0406908553        9.3161749444
  C         7.5274906571        4.2472841639       11.2575030392
  C         9.1155406883        4.6258734040        8.1183411851
  C         9.6847612446        2.6003211753        7.0739353028
  H         9.4455726548        1.2476608634       10.9699970824
  H        10.2758766169        1.2323276905        9.4273798472
  C        10.8613524248        2.7634691063       10.7574592906
  S         8.1342816762        6.5174655126       10.1348227574
  C         7.5931436728        5.5781647992       11.5287546042
  H         7.1936626706        3.4602160647       11.9599318649
  C         9.6841912047        5.2426676104        7.0600519878
  H         9.5376932961        1.5185546632        6.8873468884
  C        10.2283752210        3.2129405492        5.9622600506
  H        10.3937440800        3.6089271665       11.2482260378
  H        11.4132061542        3.2208184584        9.8776260526
  C        11.8346396832        2.3157245012       11.7542706078
  C         7.3354463036        6.3257636018       12.8654519119
  C        10.2513932707        4.5892484294        5.9814124141
  H         9.5501916067        6.3150074367        6.9741072891
  C        10.6646316151        2.8974534389        4.6953630595
  H        12.6758483535        2.9428297411       11.7333960163
  H        12.2908058233        1.3143579220       11.5228044696
  C        11.2509380429        2.1476357538       13.1481443120
  C         7.3268806634        7.7146428334       13.0297161734
  C         6.8357117060        5.5384713604       14.0034193649
  C        10.7032935766        5.3102355906        4.7230935998
  C        10.9965481498        4.0568269745        3.9585211228
  S        10.9220922998        1.4244073886        3.8719054991
  H        11.0841680008        3.2512930278       13.3907741975
  H        10.3534867461        1.6190391690       13.0859780419
  C        12.2808391390        1.8320220699       14.1778038505
  N         7.7519610875        8.6466763698       12.0804865566
  C         6.9851351486        8.3065198876       14.2471373709
  C         6.5634300709        6.0982286976       15.2532624275
  H         6.7043037081        4.4924201173       13.7662565717
  C        12.0432676185        6.1770753804        4.7604407373
  C         9.4798228558        5.9537945488        4.0089121954
  C        11.4252126272        3.7159921621        2.6844808633
  C        11.5468796371        2.3321951284        2.5681625143
  H        13.0499652193        2.6046378235       14.1066180925
  H        12.8356415332        0.8899493012       14.1839474483
  C        11.6553377996        1.9369518133       15.6447026651
  S         7.5622005090       10.1257814778       12.7049396266
  N         7.0654278729        9.6986276054       14.1840689202
  C         6.6652245470        7.5846829789       15.3886003912
  H         6.0918702310        5.5256055981       16.0744097040
  H        11.9239408372        7.1695489201        5.2278286667
  H        12.3504451677        6.4802808992        3.7400800504
  C        13.1714152023        5.5104898005        5.4407642801
  H         9.1711381463        6.8620200546        4.5659736140
  H         9.8602925039        6.2950514780        3.0206447579
  C         8.2825018933        4.9817744848        3.6958367642
  H        11.4060242883        4.5054490736        1.9430510941
  C        11.7175068083        1.6373966459        1.2436015434
  H        11.0045734592        2.7611613593       15.7394038950
  H        11.1434885463        1.0804907922       16.0028264998
  C        12.7878534505        2.2949382445       16.6221176039
  C         6.5351871675        8.3810384891       16.5895939772
  H        12.7267840749        4.9317967892        6.2628359307
  H        13.5112228233        4.7661791679        4.7386113414
  C        14.3861547404        6.2659409102        5.8016283933
  H         8.1283963569        4.3589440640        4.5972854980
  H         8.5223696287        4.2714660438        2.9609248536
  C         6.8741771897        5.5214082567        3.5049841442
  C        11.8006829147        0.2241674491        1.0123240588
  C        11.8461333269        2.4681421909        0.0159391108
  H        13.5748071651        2.9271160415       16.2526442006
  H        13.3061469271        1.4084525813       16.9235759011
  C        12.2007621435        2.9306824288       17.8829755248
  H         6.5219355768        9.4057325375       16.5048768565
  C         6.1558870892        8.0778680537       17.8625097452
  H        14.1957953554        7.0006557943        6.6001605363
  H        14.7497595313        6.8488310528        4.9541559102
  C        15.4577170242        5.2644129761        6.1113267065
  H         6.2149916024        4.9136266916        4.1088917231
  H         6.8529069116        6.5232997923        3.9215393607
  C         6.5396220193        5.7234932283        2.0492854351
  N        11.8109267673       -0.7496267478        2.0202302084
  C        12.0733540265       -0.2876600504       -0.3031329283
  C        11.9849319014        1.9682939592       -1.2520223089
  H        11.6883114284        3.5403536940        0.0851358889
  H        13.0239016006        3.1995565393       18.4594063136
  H        11.6209301528        2.1515829615       18.3861244032
  H        11.6363972066        3.8541606358       17.7348279643
  S         5.6323544715        6.5459146995       18.4841642543
  C         6.1522574357        9.1718337704       18.8434567840
  H        15.1004207264        4.5385581240        6.8341705858
  H        15.7461177405        4.7066300191        5.2152284676
  C        16.6716153124        6.0566022216        6.6347424886
  H         6.7960503456        4.8517210633        1.4798757822
  H         7.0763012071        6.5399851285        1.6798995745
  C         5.0444510432        5.8237331536        1.8326566257
  S        11.7067450453       -2.1422696147        1.2385032274
  N        11.9803936872       -1.6652468656       -0.3145645150
  C        12.1757067939        0.5024219262       -1.4792321519
  H        11.7996247761        2.6405769989       -2.0786685181
  C         5.6238855909        7.3252458922       20.1041552144
  N         5.9176881818        8.6762298031       20.0960468969
  O         6.4667686817       10.3286964916       18.5518503090
  H        16.9847845559        6.7990242359        5.8786478415
  H        16.4383001424        6.6199897180        7.4712396802
  C        17.8111727514        5.1128986374        7.0597130795
  H         4.8175200886        5.4928241903        0.8045739812
  H         4.4958348391        5.1635088401        2.5695531072
  C         4.5523325897        7.2494807194        2.0488361870
  C        12.4003927347       -0.1355420435       -2.7295008766
  S         5.2682922658        6.5964310880       21.6726071853
  C         6.2421091867        9.5223092474       21.2805033469
  H        17.3898173377        4.3794686737        7.7620543881
  H        18.1130145805        4.6669819731        6.1341233893
  C        19.0605862057        5.7089164062        7.7073779390
  H         4.9666837781        7.6322698545        3.0261238532
  H         3.4531550904        7.2141963047        2.3408108381
  C         4.7719046335        8.1032063129        0.8046229360
  H        12.5035225890       -1.2491914061       -2.6177001815
  C        13.0475547927        0.2150217641       -3.8485364438
  H         5.5514360152        9.3725320180       22.0671131292
  H         6.2416917128       10.5852504914       21.0499197604
  C         7.6125567908        9.1767926199       21.8657864356
  H        19.3460160478        5.0038724749        8.4673503259
  H        18.9043050607        6.6259115998        8.2700911819
  C        20.1307838838        5.8633980980        6.5705513257
  H         5.5081067615        8.8129555182        1.0103787983
  H         5.1994468728        7.5531667355       -0.1028716439
  C         3.5001929390        8.9001794628        0.4726431341
  S        13.7012882587        1.8091710101       -4.1766325454
  C        13.2385115511       -0.7861137655       -4.9479208036
  H         8.4738808042        8.9604554551       21.1368503733
  H         7.4573746780        8.2570887591       22.5219783207
  H         7.9561144566        9.9429793206       22.4868726739
  H        19.6910941729        6.3925648310        5.6396581896
  H        21.0119675410        6.4018022701        6.9669632648
  H        20.3587284191        4.8618882096        6.2223108563
  H         3.2001275298        9.3304459905        1.3777249442
  H         3.8067328990        9.7956156089       -0.1130257284
  H         2.7120270741        8.3072961606       -0.0198696582
  C        13.9896057356        1.1556798630       -5.7537355268
  N        13.8766225847       -0.2181692859       -5.9700781158
  O        12.7335399322       -1.8969049297       -4.8998481544
  S        14.5732713549        2.0382354995       -7.1191122608
  C        14.1501331697       -0.9058612676       -7.1894201745
  H        14.3583196552       -1.9461266071       -6.9713147667
  H        15.0426597619       -0.5936998590       -7.7676285020
  C        12.9403175190       -0.8598597916       -8.0555922505
  H        13.1573830128       -1.6805970114       -8.6883866439
  H        13.0669053383        0.0989834551       -8.5868956341
  H        12.0259914483       -0.9907041133       -7.5227649912
  H        -2.0985277382       12.2833270391       17.1559969871
  C        -2.5494136458       13.1378762140       16.6709278514
  H        -1.7701269265       13.5772395890       16.2036383902
  C        -3.3668444627       14.0629777966       17.5555891809
  C        -3.3585041903       12.5948530214       15.4943834488
  C        -3.7154552173       13.5074048394       18.8771431475
  H        -2.8754512322       15.0243382241       17.6950836680
  H        -4.3205274294       14.1920565128       17.1358697940
  H        -4.3073813620       12.2277184696       15.7288852554
  H        -3.5275887837       13.3769529181       14.7592351168
  H        -2.7180617079       11.8530404378       14.9866425389
  C        -2.4821557842       13.1896380990       19.7043338533
  H        -4.2346237150       12.6014559554       18.7238222574
  H        -4.3639517790       14.1596862138       19.4106437216
  C        -2.8002640316       13.0285831464       21.1711469219
  H        -2.0147721494       12.2765319336       19.3306784310
  H        -1.7797675019       14.0071305920       19.6085406793
  C        -1.6384950667       12.4927039887       21.9796672283
  H        -3.7491800154       12.4799534009       21.3783139139
  H        -3.0876627375       14.0339739403       21.4557894809
  C        -0.4930020824       13.4578808476       22.3198528604
  H        -2.0984343029       12.1114901461       22.9333372962
  H        -1.2806601616       11.6134390587       21.4597243692
  C         0.6341139563       12.8365914032       23.1452905427
  H        -0.0478034393       13.9769215924       21.4955082068
  H        -0.8667996034       14.2682199363       22.9772808835
  C         1.1509723887       11.5217972479       22.4919448109
  C         0.2087198539       12.1268030068       24.3923948040
  C         1.8189171302       13.9368509941       23.4241758521
  C         1.0027935921       10.3923916765       23.2774682171
  C         1.5716629490       11.1071119847       21.1810239777
  C         0.4464663809       10.7917457122       24.4574273653
  C        -0.2217780608       12.7091739552       25.6147037643
  H         2.0419821589       14.4179464042       22.5106010015
  H         1.5662653198       14.6303913787       24.2380723779
  C         3.0947383846       13.2868160730       23.9919826938
  S         1.4636306006        8.9309787713       22.6220142675
  C         1.8301130172        9.7628484959       21.1139864827
  H         1.5763445171       11.7833724380       20.3554057858
  C         0.0370717322       10.1178449374       25.5840235114
  H        -0.2060135772       13.8083011224       25.5854324065
  C        -0.4436612757       11.9934818348       26.7200223572
  H         3.4522997866       12.5425825281       23.2471803301
  H         2.9829417813       12.8196210851       25.0025347719
  C         4.2269964637       14.2748080133       24.2463584178
  C         2.2769274534        9.0457833080       19.8609090671
  C        -0.3588338833       10.6934538820       26.7996363791
  H         0.2587707483        9.0200623204       25.5894279424
  C        -0.7456068792       12.2805353424       28.0253442404
  H         5.0300571718       13.7528855550       24.8458738839
  H         3.8076859228       14.8768696835       25.0765451171
  C         4.8543681739       15.0806925747       23.1316946146
  C         2.0294083798        7.6588063375       19.5462431292
  C         2.7489556636        9.8798558906       18.7417943512
  C        -0.5908802473        9.8788238965       28.0245456041
  C        -0.9177544457       11.1585748110       28.8133712252
  S        -0.9585656737       13.7299026360       28.9091858424
  H         5.4572811109       15.9161665668       23.5882031541
  H         4.0282018690       15.4346540952       22.5209512213
  C         5.6098408257       14.2885794364       22.1116899951
  N         1.6856617605        6.7124718339       20.5055572869
  C         2.3599434677        7.1041570411       18.3449379207
  C         2.9370263747        9.3276301641       17.4535875061
  H         2.9626362206       10.9203463819       18.9640525322
  C         0.6576934095        9.2331108759       28.6696220310
  C        -1.8091972299        8.9530571666       28.0182724251
  C        -1.3165491588       11.5264055788       30.1089761816
  C        -1.3169231914       12.8611645494       30.2706556620
  H         6.6819960909       14.6283614506       21.9932145365
  H         5.6439743023       13.3572362047       22.6425748056
  C         4.7126915683       14.1362279546       20.8648014098
  S         1.6699616984        5.2507306431       19.7805695391
  N         2.2950090285        5.7369908867       18.3712978142
  C         2.7929612117        7.8821371221       17.2070294002
  H         3.1878053108        9.9668649862       16.6282142360
  H         1.0839261723        8.5561989220       27.8630994649
  H         0.3164809772        8.5707556622       29.4996723802
  C         1.7918858037       10.1636853933       29.1504226969
  H        -1.7581645121        8.0449405188       27.3945835338
  H        -1.9024144085        8.5589786102       29.0959014883
  C        -3.1206707032        9.6455695252       27.7616915123
  H        -1.5489738831       10.7483592246       30.8167753907
  C        -1.6576020992       13.4727714863       31.5669954879
  H         4.3668908999       15.1292469778       20.5691679186
  H         3.7534388944       13.5979787002       21.1104845943
  C         5.3769635881       13.2530013665       19.8211618281
  C         3.1231404389        7.1918251518       15.9508764098
  H         1.9905574629       10.8950010402       28.3674675047
  H         1.5603592617       10.6545844846       30.0836410167
  C         3.0808811764        9.3360974889       29.4277225691
  H        -2.9979349726       10.3060070626       26.9178938406
  H        -3.3234087952       10.3727468107       28.5723128492
  C        -4.3913073048        8.8168853861       27.6240956514
  C        -1.8343123629       14.8857176360       31.7276073427
  C        -2.0649404233       12.6515932005       32.8166434440
  H         5.0260558360       12.2668279131       20.1339820886
  H         4.9489534067       13.3312739378       18.7755916591
  C         6.8973239870       13.2409457715       19.8045632203
  H         2.7892745473        6.2447813655       15.9904664120
  C         3.4380361154        7.6238267808       14.7130592636
  H         3.4981411291        9.0784133732       28.4597534466
  H         2.7697803180        8.3745029507       30.0019180023
  C         4.1607032509       10.0226023381       30.3406573798
  H        -4.2167769207        7.9582430020       26.9179693580
  H        -4.6258651897        8.3251009713       28.6039666657
  C        -5.6558515751        9.5315433092       27.2325073111
  N        -1.5926683185       15.9022779719       30.7770541747
  C        -2.1646806853       15.4752314692       32.9324016248
  C        -2.3348258400       13.2663898670       34.0205447984
  H        -2.0334750558       11.5864828342       32.8763017673
  H         7.2066027363       12.5814480333       18.9083543178
  H         7.3256011900       14.2126252865       19.6763146661
  H         7.3555912586       12.8348324791       20.6385910971
  S         3.6526463729        9.2044609590       14.1925863346
  C         3.6182810348        6.6174624600       13.6717074811
  H         4.2768569519       11.0739784690       30.0773941183
  H         3.7577029930       10.0360604330       31.3945058859
  C         5.5651204865        9.3371455538       30.2692067355
  H        -5.8597647995       10.2902671512       27.9492196379
  H        -6.3682175805        8.6887070343       27.3523444247
  C        -5.7331937768        9.9759959832       25.7720533715
  S        -1.5622826896       17.3092664334       31.4917403781
  N        -2.0855133097       16.8284915237       32.9291533565
  C        -2.4329142935       14.7386657392       34.0940635597
  H        -2.5475194420       12.6011757179       34.8356738819
  C         3.9203246766        8.5507314519       12.6384863429
  N         3.9599419360        7.2203141102       12.5677061681
  O         3.2896590613        5.4409202463       13.8956994294
  H         6.3913727946        9.9270226759       30.8028185876
  H         5.8766890131        9.1617866423       29.2100779042
  C         5.5728090631        7.9699451931       30.9935456447
  H        -4.9548827202       10.4922933910       25.3673869077
  H        -5.7996645925        9.0693114257       25.2274468196
  C        -6.9879496428       10.8135630171       25.4355857174
  C        -2.7018851224       15.4201634404       35.3236707297
  S         4.3688714572        9.3848096850       11.1364064857
  C         3.9942941006        6.4905030275       11.2819716599
  H         5.8881878222        8.1181886517       32.0327593701
  H         4.5306988256        7.6388341774       30.9512602664
  C         6.7076044792        7.1336692567       30.2667646685
  H        -6.8464216442       11.6683789017       24.7175472027
  H        -7.3361592704       11.3614506264       26.2754314129
  C        -8.1973583637       10.0533012690       24.8279936089
  H        -2.4915574974       16.4687209399       35.2499025637
  C        -3.3175405574       15.1287373988       36.4568339186
  H         4.7119360022        6.9499992637       10.5675816081
  H         4.4681587384        5.5334747458       11.3022347309
  C         2.5560283401        6.4908862805       10.7413652476
  H         7.6153873743        7.6781769015       30.2427731128
  H         6.4693913611        6.8341645775       29.2323868573
  C         6.8500662969        5.8519069672       31.1236024823
  H        -8.4903286416       10.6086608319       23.9558875660
  H        -7.8435073078        9.1162266902       24.4386920132
  C        -9.3969843415        9.9302219810       25.6674991802
  S        -3.8399866424       13.5827505728       37.1117324731
  C        -3.4223364604       16.2555801404       37.4476489704
  H         2.3715700480        5.6633688961       10.1248288201
  H         1.7937790293        6.4681151340       11.5217080165
  H         2.4757846893        7.3763299150       10.1041882322
  H         6.5702422153        6.0021195341       32.2190295478
  H         7.9342229905        5.4280676498       31.0664861162
  H         6.0466520192        5.1655578859       30.7611645100
  H        -9.5731714900       10.8029098052       26.3002822924
  H        -9.1130939541        9.1618383552       26.4051608205
  H       -10.2728540739        9.7127465750       25.0831046602
  C        -4.0865340124       14.4245858525       38.6073908803
  N        -3.9608415391       15.7645715470       38.6284274350
  O        -2.9704237426       17.3398163176       37.3189439607
  S        -4.7115156780       13.7264353573       40.0277924309
  C        -4.0676069607       16.5086651388       39.8269440130
  H        -4.0813598825       17.5882762304       39.6280349632
  H        -4.9957684543       16.2827088591       40.3041644432
  C        -2.8543375523       16.2845727196       40.7001647060
  H        -2.1891440354       15.5928042484       40.2552199822
  H        -2.4186401754       17.1937654437       41.0170100951
  H        -3.1596765088       15.8262936239       41.6264597948
