352
i=
  H         3.7224274180        3.8343524110       12.0772171329
  C         2.9591456999        3.1444103094       12.2181862007
  H         2.1566107646        3.6094091973       12.7109983226
  C         2.4233935812        2.7257422943       10.8664495548
  C         3.3658191094        1.9726047198       13.1623882540
  C         3.4724905196        2.7234792240        9.7674283327
  H         1.6657841927        3.4503977685       10.5847552956
  H         1.9729140262        1.7307457551       10.9286405186
  H         2.6756616625        1.0919270849       13.0892172769
  H         3.4702508026        2.2592403151       14.1458498785
  H         4.3718779292        1.7807952119       12.8806230801
  C         4.2619738870        1.4014702630        9.5021710670
  H         2.9298752068        3.1265339379        8.8796846929
  H         4.1800438223        3.5079339658       10.1298222485
  C         5.1374193007        1.4609956289        8.2794566084
  H         3.6329469849        0.4832957119        9.3412517030
  H         4.8319665376        1.1607868533       10.4207595874
  C         6.4255646946        2.3108478245        8.5784871398
  H         4.7414261607        2.0233666540        7.4260358120
  H         5.3640393349        0.4287838122        7.9756068974
  C         7.7143249921        1.6424589203        9.0316511046
  H         6.7141160939        2.7516735422        7.6312949141
  H         6.1688722108        3.2995119871        9.0875083809
  C         8.8891862018        2.6116378389        9.3350693754
  H         8.0249015582        0.8230914011        8.3264870587
  H         7.4685854051        1.1686225352        9.9795470502
  C         8.4182624511        3.8942849141       10.0195423926
  C         9.2370937430        3.3760243101        8.0692937072
  C        10.0780616877        1.9731279575       10.1098983248
  C         8.6230061846        5.0445878202        9.2382053828
  C         8.0362679465        4.3061561623       11.2944135538
  C         9.1084329493        4.7152364966        7.9913144280
  C         9.7601196338        2.8119697682        6.9081595208
  H         9.6500024234        1.4145590009       10.9646036258
  H        10.7042135894        1.3216959022        9.4973445387
  C        11.0750068817        2.9661613742       10.6526819024
  S         8.2328761496        6.5501314403        9.9970505085
  C         7.8650595263        5.6548387830       11.4408635443
  H         7.8685292605        3.5911828518       12.0736939629
  C         9.4668760441        5.4014393633        6.8533793198
  H         9.9435630354        1.7399849216        6.9243997244
  C        10.0356811636        3.4872800204        5.7546923115
  H        10.5883148729        3.6707704824       11.3147027136
  H        11.4358863511        3.5570006551        9.8357779668
  C        12.1839672915        2.3059554764       11.5550264219
  C         7.4525392313        6.3650104172       12.7119044269
  C         9.8650639292        4.8484309001        5.6568520923
  H         9.2560597264        6.4407559639        6.7838287103
  C        10.5275162773        3.2564156827        4.5010112643
  H        13.0195583341        2.9910479732       11.6956027519
  H        12.5741187722        1.4065999898       11.1553741580
  C        11.6602738906        1.9297899955       12.9393070474
  C         7.3273628532        7.7676904268       12.8968512880
  C         6.8661915606        5.4778358662       13.7445461359
  C        10.1046354698        5.6335892158        4.3982562274
  C        10.5072573869        4.3647491357        3.6480525589
  S        10.9879193535        1.7898994759        3.6845356155
  H        10.8762165389        2.6197606773       13.0811861132
  H        11.1014826814        1.0135356390       12.9949365988
  C        12.7678058257        2.0604217570       13.8870432292
  N         7.6584428855        8.6843688789       11.9298571779
  C         6.9859861956        8.2669102191       14.1276451002
  C         6.3933816708        5.9624637571       14.9537588077
  H         6.6399891041        4.4120382070       13.5960362009
  C        11.3331869228        6.4976523376        4.7110681221
  C         8.9466962963        6.3477540987        3.6947560425
  C        10.7709335977        4.0205304785        2.2852421975
  C        11.0866287067        2.6591204434        2.1304436605
  H        13.3057357512        2.9732863647       13.6803808648
  H        13.4782682571        1.1662727584       13.7580576068
  C        12.2254444948        2.1334299263       15.2641292775
  S         7.7908509192       10.1008943615       12.7066606534
  N         7.3195771805        9.6430217259       14.1526088573
  C         6.6623580068        7.3883928601       15.2209422392
  H         5.9064144582        5.2559324317       15.6332243123
  H        11.2233176044        7.0862452137        5.6084994335
  H        11.4773250379        7.2839054236        3.9437252556
  C        12.6694090641        5.7392522656        4.8826167962
  H         8.5307491068        7.1097134982        4.4064102065
  H         9.3366837647        6.7590065571        2.7414452183
  C         7.8485295721        5.4307013431        3.3435086594
  H        10.7076331684        4.7981170663        1.5913520107
  C        11.5245954021        2.0087635955        0.8626475854
  H        12.1874973985        3.1692094159       15.5067101281
  H        11.2273024683        1.7231466712       15.3199177164
  C        13.2116243849        1.4795787591       16.2508659526
  C         6.5881706833        8.0555204627       16.4775449659
  H        12.4643495135        4.9653410849        5.5956007653
  H        12.9777874737        5.2262625667        3.9561815734
  C        13.7453873036        6.6160019947        5.5259091845
  H         7.6846120753        4.8411092743        4.2171716056
  H         8.1270840831        4.7916169225        2.5383120633
  C         6.4881284147        5.9409619165        2.8923099236
  C        11.6758568002        0.6315470277        0.7252803153
  C        11.8660941875        2.8542740855       -0.3002185062
  H        14.1435699804        1.1701355354       15.7209134310
  H        12.8508679978        0.5138866927       16.6869100632
  C        13.6311380990        2.3447395252       17.3843407711
  H         6.7304659290        9.1058433793       16.4908395251
  C         6.2379380079        7.5927015128       17.7247217277
  H        13.2936128473        7.1608363842        6.3122735482
  H        14.1053280640        7.3219362021        4.7765496531
  C        14.9430155267        5.7747612400        5.8934334268
  H         5.6903029726        5.1854171749        2.9713902644
  H         6.2078347072        6.7468269491        3.5661923585
  C         6.3508308126        6.3477243639        1.4279058228
  N        11.4229026064       -0.2810829743        1.7151118509
  C        12.0372409998        0.0579454119       -0.4538673109
  C        12.2586760071        2.2277100150       -1.4879817656
  H        11.8564273635        3.9798771051       -0.2167653233
  H        14.5481892582        2.9693930363       17.1238618920
  H        14.0375564204        1.7028764344       18.1624539323
  H        12.9438189471        3.0315870658       17.9184995136
  S         5.9779510268        5.9375049879       18.2132077004
  C         6.1249033480        8.5707557137       18.8061612267
  H        14.6509690598        4.9556143765        6.5473013622
  H        15.4708562791        5.3196384184        5.0515105019
  C        15.9359433292        6.6449976896        6.5942495241
  H         6.5331032810        5.4378876623        0.9295072819
  H         7.0790379106        7.1374453531        1.2570404295
  C         4.9537140045        6.8098458945        1.1144367877
  S        11.7348796523       -1.7773526849        1.0770708232
  N        12.0984153663       -1.3101777407       -0.4057874225
  C        12.3384925269        0.7328258540       -1.6190421364
  H        12.5448345446        2.8354593520       -2.3433469831
  C         5.8371957301        6.6112455708       19.7766223176
  N         5.8169336921        7.9547717780       19.9329772804
  O         6.4298684130        9.7585786497       18.6865192783
  H        16.3914322470        7.3421146189        5.9644129921
  H        15.3802873710        7.1028701641        7.3990766943
  C        16.9716450042        5.6530465116        7.1759098654
  H         5.0015490564        7.1742532198        0.0795236124
  H         4.3004078768        5.9122853582        1.0600703338
  C         4.3778328342        7.8819497475        1.9443112241
  C        12.5484793482       -0.0266107686       -2.7820522993
  S         5.4358274773        5.6444498231       21.2054790723
  C         5.7002472883        8.7142379187       21.1872988423
  H        16.6330108200        5.1112545927        8.0448137558
  H        17.2273209398        4.9247931774        6.3908512257
  C        18.3149441093        6.2424752813        7.6285017268
  H         5.2247689038        8.3859100400        2.5177611926
  H         3.7755843325        7.4637597974        2.7433822533
  C         3.5331245949        8.9922105195        1.3619625040
  H        12.2208296722       -1.0297797859       -2.6572257813
  C        13.0058046497        0.3244108724       -4.0025363665
  H         5.0986752799        8.2167583032       21.8939654947
  H         5.1883881404        9.6791167373       21.0625048488
  C         7.1062196138        8.7940199277       21.8974136777
  H        18.5334840056        5.7305456017        8.5845081663
  H        18.2685772586        7.3421728795        7.8459060712
  C        19.4034799047        6.2231417016        6.6143505756
  H         4.0539074432        9.6241292069        0.6899615797
  H         2.7186114158        8.5098590843        0.8905967294
  C         3.1206013251        9.9585629352        2.5104282023
  S        13.6883260054        1.8030132494       -4.4637720633
  C        13.1596449022       -0.7536973771       -4.9346787780
  H         7.3413839472        7.8280448478       22.2579114392
  H         7.1784653872        9.3930367984       22.7685551310
  H         7.9843181412        9.2018799759       21.2792626427
  H        18.9475217917        6.6426597389        5.7611294328
  H        20.2577842975        6.7384155266        6.9402727942
  H        19.6889677702        5.2117214411        6.3347208841
  H         3.2271863489       11.0054412393        2.2065840805
  H         2.0708320773        9.8272143654        2.8310798815
  H         3.7051597159        9.7977688087        3.3857616061
  C        14.1040718725        1.0091906135       -5.9648865002
  N        13.8065599930       -0.3478368788       -6.0142264377
  O        12.8259587619       -1.9378424127       -4.8071168633
  S        15.0315778071        1.6397492662       -7.3108356589
  C        14.0059062653       -1.2018565515       -7.2012435456
  H        13.9750060466       -2.2110248481       -6.7809102937
  H        14.9333633873       -0.9785218906       -7.6907583443
  C        12.8646681729       -1.2351180323       -8.2662758090
  H        12.5897930421       -0.2584784843       -8.6284413206
  H        11.9995725341       -1.6668483742       -7.6987133896
  H        13.2009234307       -1.9082169545       -9.0466546008
  H        -2.1966302380       12.3570632896       16.8739914769
  C        -2.6511809337       13.2805559937       16.6359799327
  H        -2.0151137094       13.6577845376       15.7842236878
  C        -2.6088317709       14.1527484599       17.8666002713
  C        -4.0429840098       13.1353693180       16.0532017206
  C        -3.1855713738       13.3619098695       19.1376091408
  H        -1.5802073115       14.3965858114       17.9721082412
  H        -3.1875756504       15.0658946020       17.7152748676
  H        -4.8066345621       13.2388187806       16.8545635771
  H        -4.1506792804       13.8749546301       15.2949962237
  H        -4.1379367055       12.2194267316       15.5264939355
  C        -2.1375774725       12.8953704816       20.1404222832
  H        -3.7235455904       12.5001426566       18.7969647995
  H        -3.8591982327       14.0814304475       19.6423379647
  C        -2.6587518284       13.0880563116       21.6030254310
  H        -2.0174551486       11.8469525474       20.0306041103
  H        -1.2054734184       13.4379620448       20.0250389175
  C        -1.6360122067       12.6135658824       22.5841626934
  H        -3.6136302358       12.5497704873       21.8462368103
  H        -2.8221950293       14.1632013327       21.7634546623
  C        -0.3492052291       13.4638023399       22.6780193680
  H        -2.0077018350       12.5199023765       23.5825737236
  H        -1.3136510868       11.6272551717       22.2842710212
  C         0.7719381898       12.6967590532       23.3041863790
  H        -0.0947588799       13.7482895179       21.6447768813
  H        -0.5202330577       14.3083720248       23.2538024922
  C         1.1316512189       11.4857528297       22.5119739442
  C         0.4413538866       12.0503146780       24.5612620874
  C         1.9908757003       13.6420584538       23.4833927856
  C         1.0271716053       10.3970012042       23.3384774787
  C         1.4908698098       11.1655744252       21.2173888571
  C         0.4890363216       10.6806827492       24.6046836288
  C        -0.0203065269       12.6723155817       25.7159761556
  H         2.0635326068       14.2080929719       22.5267616280
  H         1.8201664960       14.3411499797       24.3363160237
  C         3.2566383799       12.7832718505       23.6510669096
  S         1.4805583326        8.8501695331       22.5654225525
  C         1.8132945521        9.8264040330       21.0640104927
  H         1.5601544839       11.9450545891       20.4429139194
  C         0.1631661560       10.0442683445       25.7514494254
  H        -0.1802672474       13.7199181766       25.7288357997
  C        -0.3975745980       12.0328025292       26.8203467177
  H         3.6304828065       12.2055855197       22.8395304528
  H         3.1502121445       12.0334419586       24.5058065280
  C         4.4599041126       13.6231722209       24.0148170139
  C         2.3198942770        9.1256127242       19.8109226926
  C        -0.3104141209       10.6772812288       26.9146469018
  H         0.2477324163        8.9994226473       25.9276195314
  C        -0.9009477402       12.3380685152       28.0296105593
  H         5.1785295412       12.9405493396       24.4505695854
  H         4.1140986729       14.4006421859       24.6365451663
  C         5.0137632410       14.2811855192       22.7792391139
  C         2.3234974272        7.7004476559       19.5112394345
  C         2.7561862528        9.9981168126       18.7885486076
  C        -0.6994114131        9.9442463878       28.1991673181
  C        -1.0518268737       11.2832759631       28.9195661316
  S        -1.1867980294       13.8154853353       28.8590715595
  H         5.6962553450       15.1132603605       22.9448624978
  H         4.2089031661       14.7749789521       22.2301399196
  C         5.9151302407       13.2861461002       21.9689938355
  N         2.1079071851        6.7676805562       20.4584613860
  C         2.5975695735        7.1752551623       18.2583097027
  C         2.9679166567        9.5632661587       17.5318749263
  H         2.7913002069       11.0427098822       18.9956199835
  C         0.3349597296        9.1767708508       28.9891515661
  C        -2.0108044586        9.1052408063       27.9617738592
  C        -1.4318318742       11.6248530382       30.2427796295
  C        -1.5384276886       13.0004955088       30.3395694454
  H         6.8466350944       13.8495906536       21.9391228754
  H         6.1301474345       12.3641357891       22.5359033609
  C         5.2813744914       12.8287617056       20.6585303180
  S         2.2162569006        5.2562622170       19.7051868599
  N         2.5549385416        5.8111002250       18.1801950610
  C         2.8598971397        8.1012181793       17.1917645568
  H         3.1308232325       10.2183462429       16.6997240727
  H         0.8086305353        8.4274357710       28.3098312007
  H        -0.1502610911        8.6189427451       29.7907069247
  C         1.5036427101        9.9253693197       29.6324803887
  H        -1.7136157102        8.4120862222       27.0823369338
  H        -2.2614249490        8.5725364380       28.9251398922
  C        -3.2613749467        9.8497467746       27.4883216963
  H        -1.4812416906       10.8686529219       30.9840682747
  C        -1.8481252011       13.7672713183       31.5677908095
  H         4.4497038666       13.5157269929       20.5056715298
  H         5.0331527895       11.7268966095       20.7246617071
  C         6.2810151526       12.9726381789       19.4644880126
  C         3.1002901130        7.5328786087       15.9210271323
  H         1.9350419962       10.6502638709       28.9173087788
  H         1.0755910649       10.5086696287       30.4275551435
  C         2.5542697472        8.9575977471       30.1273843651
  H        -2.9915132647       10.2738543479       26.5771798370
  H        -3.4042670724       10.7404460816       28.1106637822
  C        -4.5468120136        8.9790981081       27.2695732892
  C        -1.9789763924       15.1574278034       31.6860750257
  C        -1.8930288119       13.0173470980       32.8688527821
  H         7.0367191060       13.8407303224       19.6368151372
  H         6.8804937521       12.0770088261       19.4152214744
  C         5.6501235492       13.2265985471       18.0986610967
  H         2.5117350769        6.5748903345       15.7625565365
  C         3.4049192853        7.9485651095       14.6519701641
  H         2.9362120475        8.3949520508       29.2087879505
  H         2.1116900008        8.2160265134       30.8257653109
  C         3.6501694588        9.6794801287       30.8130487609
  H        -4.6164714553        8.1706632607       26.5542426068
  H        -4.9133801297        8.5209996790       28.1996278837
  C        -5.7596863471        9.7603167812       26.9081884023
  N        -1.9674727220       16.0860287781       30.6072719386
  C        -2.3228049843       15.7429364477       32.8603401266
  C        -2.2543735176       13.6817883666       34.0711895105
  H        -1.6833941468       11.9521110146       32.9505212782
  H         5.4983666195       12.2666803274       17.6946148097
  H         4.6487382339       13.6555484498       18.3218594581
  H         6.0939906879       13.8761973673       17.3354966090
  S         3.7747860734        9.6256332026       14.2037530466
  C         3.4405931533        6.9183894071       13.5811414473
  H         3.8070786053       10.6242180815       30.3992378070
  H         3.3978891083        9.9212239599       31.8491890588
  C         4.9683084624        8.9662372335       30.7269086053
  H        -5.9186704525       10.7032440171       27.4374101613
  H        -6.6058559905        9.0850865637       27.0904718337
  C        -5.7782459284       10.1875204243       25.4564571912
  S        -2.1178338850       17.5459597369       31.2108297488
  N        -2.5704018288       17.0979571451       32.7054959971
  C        -2.5772586539       15.0873709146       34.0810889281
  H        -2.4319655662       13.0721151408       35.0016749555
  C         3.9193145447        8.9203737987       12.5983934759
  N         3.8593683449        7.6157128267       12.4965846598
  O         3.4207618187        5.6638820243       13.7539642134
  H         5.7690099996        9.5131129844       31.2106137902
  H         5.4197450271        8.7927234202       29.7398268430
  C         4.9544716202        7.6350142902       31.4836177137
  H        -4.9812848771       10.8833747497       25.2870734878
  H        -5.5475935738        9.4180302352       24.7591587469
  C        -6.9350752290       11.0012139163       24.9406092236
  C        -2.9406254697       15.8209485770       35.2004628891
  S         4.5550633851        9.8685924978       11.2854088252
  C         4.0031294949        6.8754022055       11.2793997259
  H         5.7266656219        7.7883748492       32.2490036526
  H         4.1544073748        7.5124818431       32.2258662366
  C         5.3833396796        6.4458290515       30.7051381247
  H        -6.6638947320       11.1097373927       23.8629518709
  H        -7.0053985866       11.9936551416       25.3850128074
  C        -8.2663463666       10.3483089887       25.0190679473
  H        -2.5354533090       16.8432999375       35.2355531945
  C        -3.5011063446       15.4352878417       36.3942551733
  H         4.5667830581        7.3787386420       10.5236603188
  H         4.6688857427        6.0351597584       11.5046130562
  C         2.6289345849        6.4600267908       10.7152259347
  H         6.2986090144        6.7588464838       30.2250636895
  H         4.7026256473        6.1719436319       29.9362190260
  C         5.7391422931        5.3187234847       31.6727355980
  H        -8.6918322998       10.5540971516       24.0383772427
  H        -8.1416035449        9.2735368701       24.9207570274
  C        -9.1501248657       11.0477603122       26.1336528712
  S        -4.1398012087       13.8494590600       36.7845678277
  C        -3.5183168623       16.3780784340       37.5667135470
  H         2.4474981173        5.3888882440       10.7020066077
  H         1.8326023572        6.8005133596       11.2714321129
  H         2.4360402559        6.6844592438        9.6729078129
  H         5.7648510336        4.2770791877       31.2336746288
  H         4.8151232735        5.2779298357       32.2561056463
  H         6.6336359913        5.5820070138       32.3075489147
  H        -9.1853080745       12.0904260136       25.9821744929
  H        -8.7513897068       10.8434983566       27.1807502205
  H       -10.2259154530       10.7856939701       26.1548204338
  C        -4.6089689169       14.4785710446       38.3756324377
  N        -4.1855388454       15.7613235471       38.6265696808
  O        -2.8342581065       17.3416367207       37.5726881686
  S        -5.1977631014       13.5419354593       39.6965160343
  C        -4.4021819504       16.4564728512       39.8925778450
  H        -4.7204848323       17.4275813420       39.6854743211
  H        -5.3300621843       16.1352550219       40.2783099578
  C        -3.2524747813       16.2756528771       40.8315962448
  H        -3.4854895462       15.5319110722       41.6343646569
  H        -2.3664953142       16.0040752303       40.2721386470
  H        -3.2230727780       17.2725390183       41.3347944438
