352
i=
  H         4.7499372097        1.5343440043       13.2087803069
  C         4.0721909131        2.3224125764       13.2537001292
  H         4.6618538281        3.1591157471       13.5702336616
  C         3.3056259843        2.5990871540       11.9338509920
  C         3.2704338871        1.9992457513       14.4581322691
  C         4.2404032102        2.7957159302       10.8214199885
  H         2.7306690000        3.5035097047       12.0656964999
  H         2.5978025788        1.7827192633       11.7855843558
  H         2.8502678958        0.9526514642       14.3597797271
  H         2.4288075456        2.6068171522       14.3510893612
  H         3.8624929262        2.1167166403       15.3325917311
  C         4.8971626316        1.5627321725       10.2355442689
  H         3.6499415134        3.1589490545        9.9582963429
  H         4.9722402722        3.5766713156       11.0042498012
  C         5.3270917071        1.7521422563        8.7445769138
  H         4.2502077481        0.6877791712       10.2726573530
  H         5.8023300405        1.3246557213       10.8269690813
  C         6.5308613027        2.6797575244        8.6222814294
  H         4.4173848098        2.0906461470        8.2592926440
  H         5.4794852052        0.8300124664        8.2197808908
  C         7.9043731963        2.1062181822        9.1014221204
  H         6.5103463088        2.8656991683        7.6022457380
  H         6.3153582849        3.6509605384        8.9718980067
  C         9.1689066976        2.9690906150        9.3442261235
  H         8.0637818930        1.2360735385        8.4237569935
  H         7.7892511668        1.5278427091       10.1073673629
  C         8.8793504854        4.3195621700       10.0235144637
  C         9.6735527304        3.7181731347        8.1223054314
  C        10.2144757750        2.2539196471       10.1565554929
  C         9.2432117485        5.4315978013        9.3378652819
  C         8.4261120394        4.6589418391       11.2866951881
  C         9.7247555065        5.0839200800        8.1074826977
  C         9.9987115182        3.1162560167        6.9410565274
  H         9.7719615241        1.8487908025       11.0807343350
  H        10.4141559193        1.3656811730        9.5161600852
  C        11.4538233738        3.0725768865       10.4140434486
  S         8.8947088965        6.9385981162       10.1700276730
  C         8.2039343212        6.0149256778       11.4496577416
  H         8.2577224885        3.8925161881       11.9969116754
  C        10.0776900464        5.7181059853        6.9401533173
  H         9.9066300892        2.0205274200        6.7852777448
  C        10.4541958295        3.7205076204        5.8717334060
  H        11.1700867756        4.0831882475       10.7613760167
  H        11.9050588401        3.1846708095        9.4153855060
  C        12.5117928432        2.4338142808       11.3369860645
  C         7.7457371970        6.6720506456       12.7421310695
  C        10.5492774677        5.0607322791        5.7955392902
  H        10.0237595362        6.7704874457        6.9322855521
  C        10.8012520564        3.2788518080        4.6017377812
  H        13.3475265942        3.1164222376       11.4178187102
  H        12.8840290164        1.5245020136       10.8844856924
  C        12.0175968512        2.1239353215       12.7754759771
  C         7.7405758878        8.0513916601       13.0204503028
  C         7.4161314798        5.7618088336       13.9162182610
  C        10.9904361495        5.7257131104        4.4235375579
  C        11.0507828480        4.3781714304        3.7115834104
  S        10.8867873020        1.7170547729        3.8556955227
  H        11.2276670031        2.7543837939       13.0241995341
  H        11.5535752773        1.1494707772       12.8124581692
  C        13.1645911436        2.1121435357       13.7636402285
  N         7.9926435782        9.0308891682       12.0576253066
  C         7.5102642437        8.5860291930       14.2991611960
  C         7.1690431550        6.3605921122       15.1479351840
  H         7.3716946426        4.6767139726       13.8838777752
  C        12.2500336227        6.5751938046        4.4975717833
  C         9.7242210734        6.5751430589        3.9899706145
  C        11.2781008267        3.8766439853        2.4181827144
  C        11.2820995804        2.5354936780        2.3481064922
  H        13.4904159809        3.1365046370       13.7908558811
  H        14.0461995546        1.6386921955       13.2735290212
  C        12.8817929985        1.5258222444       15.1703834994
  S         8.1912716536       10.4119712002       12.8577803880
  N         7.6395947581        9.9696347265       14.2810701512
  C         7.2247343752        7.7779807099       15.4523497895
  H         6.9783253406        5.6601206208       15.9266797527
  H        12.0383962447        7.3319435569        5.2701697948
  H        12.5259050637        7.0786445203        3.5911747273
  C        13.3621835632        5.7431957817        4.9634562426
  H         9.5871917603        7.3695924835        4.7452805731
  H        10.0940571668        7.0236089116        3.0833205499
  C         8.3680921696        5.8302925332        3.8006652773
  H        11.5362356715        4.5946231568        1.6591881433
  C        11.5379220866        1.7016845998        1.1093412040
  H        11.8311207833        1.1408633506       15.0814115095
  H        13.6407804004        0.7092851274       15.2731889538
  C        12.9888013304        2.5145242999       16.3157572299
  C         6.9631097675        8.4218057994       16.7099699667
  H        13.2291850412        5.3543898605        5.9783140094
  H        13.3935758276        4.8893895512        4.4155120326
  C        14.7522220260        6.4567324880        4.8758314353
  H         8.1489931452        5.2215589801        4.6075904758
  H         8.5226969442        5.1232698602        2.9529300827
  C         7.2632485913        6.7808019515        3.4428935917
  C        11.6131299896        0.2511019837        1.0031658664
  C        11.7863195367        2.3938064170       -0.1958895901
  H        12.2919339459        3.3273713855       16.0816060670
  H        13.9013836298        3.1081203650       16.3935889925
  C        12.8718057890        1.8568954036       17.6957585516
  H         7.0727988112        9.4704141222       16.6682696332
  C         6.6541902444        7.9292199824       17.9633054050
  H        14.7351427931        7.2136132194        5.6124268761
  H        14.8250696994        6.8272817790        3.8758303467
  C        16.0426394820        5.7127995754        5.2063089154
  H         6.9664082918        7.5746481563        4.1354370549
  H         7.6790604291        7.2284060780        2.5369432418
  C         5.9169646515        6.1965247515        3.0194143375
  N        11.3526186186       -0.6070855188        2.0800106240
  C        11.9284313045       -0.4619748824       -0.1701023095
  C        12.1389338402        1.6765265953       -1.3252820141
  H        11.6614295384        3.4977479485       -0.1932913756
  H        11.8213596640        1.6499677446       18.0393705190
  H        13.2471080262        2.5544380475       18.4635898240
  H        13.4923429766        0.9221112391       17.6655333274
  S         6.4712221607        6.2316309480       18.3887218552
  C         6.5915567234        8.8701943954       19.0572778475
  H        16.0500334721        4.8176340114        4.6649404998
  H        16.8764983674        6.3150868914        4.8637644881
  C        16.2077095193        5.4374098468        6.6854271537
  H         5.2117760103        6.1795814506        3.8413000351
  H         5.9855231727        5.1505264793        2.6841859833
  C         5.2364039631        6.9140925218        1.8399153131
  S        11.6638747192       -2.1331462729        1.5951083357
  N        11.9964023268       -1.8422887442        0.0504037241
  C        12.2092665417        0.1982128043       -1.4026674183
  H        12.3060705238        2.2168095216       -2.2255205879
  C         6.1884362484        6.8627707088       20.0159555065
  N         6.1472087261        8.2423232839       20.1283925415
  O         6.6620950494       10.0771979152       18.9480735771
  H        16.1006367660        6.3806891828        7.2017446866
  H        15.5100108188        4.7236139934        6.9555539105
  C        17.6462124144        4.8667412489        6.9137076243
  H         5.8660393015        6.9969448665        0.9462542494
  H         4.2859950569        6.3674730680        1.6404651684
  C         4.6781104321        8.3006628677        2.2456177244
  C        12.4735691193       -0.6283940572       -2.5267775365
  S         5.4881555251        5.8267694241       21.2733667211
  C         6.0517737779        8.8801081601       21.4781018882
  H        17.5719299394        4.1923406838        7.7190615019
  H        17.9320499335        4.2688585719        6.0140437017
  C        18.6605488908        5.9583834868        7.2102974856
  H         5.4808919308        8.9267823751        2.5845109751
  H         4.0422619411        8.1586265362        3.1361389712
  C         4.1190492369        8.9658322347        0.9732723764
  H        12.2654177619       -1.7118815094       -2.3872503909
  C        12.9196059724       -0.2993523881       -3.8044576990
  H         5.3775542784        8.5692687865       22.2307617083
  H         5.5924769553        9.8288293758       21.2185014948
  C         7.4125528123        8.8954057083       22.1497851307
  H        19.0749356087        5.7089564743        8.2306133888
  H        18.1674094038        6.9173411518        7.0934984658
  C        19.8262506702        6.1503086590        6.2151898947
  H         4.9200943530        8.9979708423        0.2913396511
  H         3.3888740794        8.3031953010        0.4694639342
  C         3.5051070005       10.3563099099        1.2884689960
  S        13.2402141589        1.3087133317       -4.3576153648
  C        13.0344087918       -1.3423676183       -4.7581195458
  H         8.0952248939        8.5868488823       21.3636640650
  H         7.5057064067        8.1006995726       22.9458779274
  H         7.7238233251        9.8269893379       22.5264974674
  H        20.7759280708        6.3992779140        6.7803176710
  H        19.9398200460        5.2187539807        5.7210065263
  H        19.6112138344        6.9034341686        5.3964422506
  H         4.2233077717       11.1133435885        0.9718502291
  H         2.5519533947       10.5238688076        0.8216322285
  H         3.3039291722       10.5270593218        2.2869605753
  C        13.6469439704        0.5546379405       -5.9052938553
  N        13.5446086873       -0.8066174088       -5.8740767874
  O        13.0317167518       -2.5596753866       -4.5369057823
  S        14.3357137519        1.3695587711       -7.3209309039
  C        13.6794876303       -1.6297130621       -7.0480428106
  H        13.5679979377       -2.6967122852       -6.7667464203
  H        14.6531422276       -1.4798715843       -7.5027769130
  C        12.5455594298       -1.3153750440       -8.0071801013
  H        12.8946865602       -0.9743731121       -8.9939338820
  H        11.7841681992       -0.5987895536       -7.6651936050
  H        12.2158293411       -2.2623208330       -8.2795808525
  H        -3.2209729831       14.7739020750       16.3910411970
  C        -2.9912079012       13.7485531442       16.5255051662
  H        -3.8708720175       13.2190869695       16.7569626367
  C        -2.0594281201       13.5322552229       17.6836678217
  C        -2.4803627796       13.1015061512       15.2022477218
  C        -2.4466585706       14.1158291719       19.0921128932
  H        -1.9523075563       12.4934897147       17.8987666482
  H        -1.0680203065       13.9534805674       17.5622888570
  H        -2.1971684809       12.0463088120       15.4906328374
  H        -3.2463038823       13.0174027720       14.4308558464
  H        -1.6958838205       13.6640223043       14.7150386318
  C        -2.1099012754       13.0981954452       20.2040637323
  H        -3.4492465828       14.3299750446       19.0832939902
  H        -1.9303507497       15.0403966765       19.3635731958
  C        -2.2720957217       13.6248961965       21.5714411199
  H        -2.8143957434       12.2270238241       20.1431475555
  H        -1.0915900846       12.8026057670       20.1860256381
  C        -1.2187390217       13.0084070143       22.5357324433
  H        -3.2680403652       13.3441814302       21.8998133120
  H        -2.1627352014       14.7007448139       21.6796360019
  C         0.0119478939       13.8062177209       22.6108031209
  H        -1.5677247231       12.9185150603       23.5775835130
  H        -0.9855601971       12.0091637731       22.2480005862
  C         1.1737111914       13.1105608638       23.3921314229
  H         0.3674790094       14.1538734171       21.6872212316
  H        -0.2387935015       14.7883861833       23.1238000620
  C         1.5148355622       11.7358628298       22.8042390902
  C         0.6654358074       12.4082186190       24.6177560309
  C         2.3411356105       13.9439602313       23.5502903064
  C         1.0802124935       10.6524400775       23.4985929782
  C         1.9008187021       11.4207267761       21.4633900506
  C         0.6513979682       11.0604640326       24.7345470180
  C         0.1418979106       13.0915301255       25.7143988488
  H         2.6057386324       14.4118356826       22.5685180263
  H         2.2555612150       14.8513440747       24.1752417364
  C         3.5559552170       13.1258537175       24.1642629901
  S         1.2391507882        9.1361609029       22.7051677861
  C         1.8896777021       10.0512821542       21.3247030265
  H         2.1215006046       12.1810592336       20.7918743388
  C         0.1998102297       10.5096631471       25.8876740581
  H         0.1215424248       14.1710281093       25.6500211593
  C        -0.2521268360       12.5144960249       26.8767039576
  H         3.8734015820       12.2927597760       23.5383129808
  H         3.2351801605       12.5862025112       25.0622423744
  C         4.7921247550       13.9515629846       24.4687245440
  C         2.4728096598        9.3605777572       20.0926688836
  C        -0.2462221857       11.1657769379       27.0690956280
  H         0.1764603864        9.4749813783       25.7847395524
  C        -0.6694359863       12.9351354345       28.1595236198
  H         5.3944122625       13.3413123318       25.0414905977
  H         4.5197502074       14.8584273205       24.9868837482
  C         5.5369915091       14.3969576887       23.2740923757
  C         2.6420058753        7.9074080344       19.8618716919
  C         2.8330926703       10.1737175744       18.8937677492
  C        -0.6990838317       10.4752196056       28.3536628569
  C        -0.9660658987       11.8509670047       28.9712786274
  S        -0.9513510847       14.4414902960       28.9194935503
  H         6.2247213941       15.2271388096       23.5265296030
  H         4.8071272882       14.8209889120       22.5547060916
  C         6.2850389511       13.2200246249       22.7240982642
  N         2.4827470911        6.9819471292       20.8806454555
  C         2.9899333178        7.3148957861       18.6521055371
  C         3.2660130553        9.6003343469       17.7043505182
  H         2.5519939912       11.2767817150       18.8927016327
  C         0.3233599588        9.7217219585       29.0772312006
  C        -2.0733218841        9.6238019099       28.1072166386
  C        -1.3558180317       12.2765901565       30.2792422753
  C        -1.4193538786       13.6279029728       30.3823740336
  H         7.3228243846       13.4049354160       22.9000934431
  H         6.1452001018       12.2402300376       23.1963461953
  C         6.0535465321       12.9301511557       21.2498734229
  S         2.6376759147        5.4753724319       20.2063760729
  N         2.9837558888        5.9324507325       18.6784222440
  C         3.2122862951        8.1163977990       17.5028395567
  H         3.5158545995       10.2521590006       16.9168893822
  H         0.5633730542        8.7958104400       28.5891140943
  H        -0.1739394782        9.4124229414       29.9979711436
  C         1.6104467770       10.5652004591       29.5195910254
  H        -1.8671713920        8.9651425800       27.2332556874
  H        -2.3134229965        9.0112402367       28.9970576773
  C        -3.2685785327       10.4667978957       27.8719738207
  H        -1.3542147403       11.5728026776       31.0638784719
  C        -1.5621550062       14.3397295298       31.6965539681
  H         4.9117567098       12.9827378167       21.0750249238
  H         6.4108082911       11.9258061794       20.9258038674
  C         6.8684724546       13.8859644370       20.3596949806
  C         3.5662362424        7.4887576164       16.2644860827
  H         2.0157879739       11.0765825277       28.6224734513
  H         1.2971254893       11.2900362892       30.2953066732
  C         2.6764000861        9.5661287381       30.0378650679
  H        -3.1971667648       11.2945933391       27.1120114608
  H        -3.6524417559       10.9887269178       28.7220905458
  C        -4.4512727162        9.6243476229       27.3660592692
  C        -1.7133445093       15.7292011349       31.8307655252
  C        -1.8386471025       13.5829333401       32.9825017412
  H         6.3712532339       14.8234004379       20.5742732737
  H         7.8644479317       13.9064083464       20.6815013110
  C         6.6865404879       13.5257381012       18.8550343406
  H         3.6329011591        6.3672636709       16.2216207845
  C         3.8092457813        7.9873065793       14.9954205741
  H         3.1377367630        9.0847625593       29.1846536212
  H         2.2722462793        8.8224977155       30.6398008704
  C         3.7639834627       10.3099601549       30.8837076589
  H        -4.0830536350        8.9101953916       26.6854208962
  H        -4.9761229737        9.0218124775       28.0920635116
  C        -5.5547190289       10.4727353522       26.7362000741
  N        -1.5621324872       16.6234390734       30.7851082794
  C        -1.9224574397       16.4241558038       32.9547317382
  C        -2.3123860092       14.2548597145       34.0968835021
  H        -1.7162763872       12.5660072116       33.0907445613
  H         6.7362447813       14.3960227270       18.2294119989
  H         7.5423990534       12.9911303849       18.4889567542
  H         5.7705861039       13.0045541387       18.6844319584
  S         4.1054109703        9.6198446169       14.4707237993
  C         3.8590483779        6.9647576235       13.8679848163
  H         3.7494220335       11.2297689875       30.3338970177
  H         3.3564038554       10.6367340544       31.8546687753
  C         5.1916598976        9.6768144896       31.0933690425
  H        -5.2007514463       11.2867317300       26.1199612994
  H        -6.2210556018       11.0309259466       27.4621119909
  C        -6.4936188437        9.5035990416       25.9194498028
  S        -1.6963113896       18.1609212787       31.2768694673
  N        -2.0438332598       17.7746476810       32.8104054133
  C        -2.2148962918       15.7374267161       34.1513694826
  H        -2.4971321974       13.6309728520       34.9537641063
  C         4.2717430789        8.9387440747       12.8261549163
  N         4.1832623534        7.5932635732       12.7358318335
  O         3.7324793105        5.6910251290       14.0477342426
  H         5.8191985855       10.1253967788       31.8467059714
  H         5.7481176686       10.0011037565       30.1777912081
  C         5.2646653220        8.1263379878       31.3711360465
  H        -5.9453454747        8.9190623498       25.1375636949
  H        -6.9255395514        8.8365168001       26.5869255465
  C        -7.5229453664       10.4353542947       25.2582923213
  C        -2.4103043218       16.5471167498       35.3281462610
  S         4.9112417033        9.8085492966       11.4674510975
  C         4.3431751794        6.9101673632       11.4589595567
  H         6.1137060583        7.8300149019       31.9810893206
  H         4.4077750583        7.9158200902       31.9888431328
  C         5.3091265283        7.2820819659       30.0532086452
  H        -6.9596349067       10.9076883434       24.5075960263
  H        -7.8494727432       11.1653933001       25.9492681940
  C        -8.7512900091        9.7648910843       24.7015017669
  H        -2.0649956354       17.5856056824       35.2780042323
  C        -2.9970296774       16.2091769555       36.5465547635
  H         5.2695887551        7.0424087728       10.9098206007
  H         4.3058204391        5.8395056624       11.7023029893
  C         3.1555859579        7.0972534460       10.5524101622
  H         6.2128488448        7.5432690300       29.4415661623
  H         4.4310073019        7.4945279004       29.4295756617
  C         5.4573495169        5.8314381613       30.3650573654
  H        -9.0265822896       10.4065673211       23.9036697304
  H        -8.5240536437        8.7437855564       24.3935708167
  C        -9.9234875696        9.7010360712       25.6848873912
  S        -3.5629162834       14.7089006985       37.0743192454
  C        -3.0486479311       17.2642762717       37.5414545136
  H         3.1952491715        6.3781125654        9.7768230733
  H         2.2053617137        7.0593189582       11.0080507137
  H         3.1869388079        8.1228330449       10.1081273056
  H         5.0789850777        5.3080544257       29.4521669208
  H         4.9283451488        5.5036072832       31.2319867933
  H         6.4891855964        5.4981600008       30.4714846322
  H        -9.5397731771        9.4990826588       26.6651624126
  H       -10.6453663955        8.9321332032       25.3745124561
  H       -10.2924274856       10.7097077895       25.7191511851
  C        -3.9854584064       15.5613245077       38.5557905666
  N        -3.6076414336       16.8461984626       38.6533523661
  O        -2.5778398571       18.4183644306       37.3753398205
  S        -4.4358596211       14.7707197261       40.0270261431
  C        -3.5217756645       17.6799823408       39.8411386510
  H        -3.4958610163       18.6822058840       39.5039136717
  H        -4.3588924506       17.4672475613       40.5221281049
  C        -2.2365416884       17.3853097552       40.6782681340
  H        -2.4299764121       17.6775981079       41.7210271161
  H        -1.9617071298       16.3033674698       40.5889669987
  H        -1.4608822493       18.0330609789       40.2688927033
