352
i=
  H         3.4119203243        2.0349641079       13.5010851040
  C         4.1000002458        2.1201444867       12.7154231403
  H         4.3230958589        1.0958801361       12.5304823493
  C         3.4455785738        2.6574175267       11.4030267016
  C         5.3188393707        2.8185005288       13.2272227102
  C         4.4545088042        2.9022735924       10.2066110305
  H         2.8920586194        3.5871249224       11.5780328386
  H         2.6534261651        1.9521546267       11.2567304483
  H         5.2060985355        3.8639225431       12.8721433552
  H         6.2611182938        2.3510427971       12.9409094325
  H         5.3384878999        2.7002917597       14.3729088596
  C         4.9694265152        1.5713576446        9.6087703697
  H         3.9467106030        3.4868791022        9.4007254806
  H         5.2033408119        3.6019719608       10.4887114297
  C         5.6637686951        1.7231415267        8.2389153280
  H         4.1384016581        0.8625573454        9.4870780458
  H         5.7431150023        1.1061166091       10.2174301275
  C         6.9178522145        2.6307337561        8.2918867358
  H         5.0187864477        2.2199729349        7.5277157911
  H         5.8575005495        0.7983290086        7.7940791260
  C         8.1082158993        2.1395536114        9.2040322581
  H         7.2930225596        2.7821584485        7.2969532340
  H         6.5877195796        3.6045978489        8.5164456347
  C         9.3327546256        3.0691306088        9.1470845856
  H         8.4744724277        1.0777629752        9.0224938004
  H         7.8184525119        2.2445144582       10.2203519503
  C         9.1034666257        4.4021247156        9.8020682391
  C         9.8204857838        3.5967419744        7.8553351760
  C        10.3114283704        2.3084533735       10.0284343953
  C         9.3793356988        5.4755438610        8.9697692424
  C         8.6562475064        4.7268210871       11.1030333446
  C         9.7647545192        4.9587658411        7.7091216705
  C        10.1315784087        2.8665480167        6.7452602137
  H         9.8741694896        2.3493446246       11.0182535653
  H        10.3466077147        1.2582555928        9.8643498863
  C        11.7535596432        2.9539201756       10.0449825700
  S         8.9985193306        7.0313232769        9.7144232724
  C         8.5527224279        6.1186878083       11.2014309806
  H         8.4856638025        4.0083644751       11.8720021275
  C        10.1649739894        5.4754203691        6.4951708467
  H        10.0905360763        1.8040097802        6.8816664934
  C        10.4655733051        3.3612704754        5.5543509009
  H        11.6475020911        4.0108107459       10.1732734657
  H        12.1613480374        2.8085274757        9.0748695536
  C        12.7317975833        2.3843445462       11.1057465897
  C         8.1324774650        6.7633100087       12.5325561786
  C        10.4403899343        4.7052995417        5.3906365987
  H        10.1940786171        6.5177914496        6.3314401822
  C        10.8695329490        2.8716211284        4.3099458564
  H        13.6533139415        2.9149109604       10.9657109015
  H        12.8556261128        1.3767704312       11.0094821865
  C        12.3347152731        2.4685187643       12.6181094216
  C         8.0438206143        8.1315346393       12.8051090868
  C         7.8398470248        5.8974902221       13.6963750805
  C        10.7337193726        5.2630740913        4.0402448243
  C        10.9933423320        3.8736730527        3.3975643087
  S        11.1400261780        1.2695824055        3.6089374940
  H        11.6187671109        3.2198607548       12.7714995806
  H        11.7773910997        1.5426309171       12.7932015475
  C        13.5146419315        2.4903740178       13.5846330384
  N         8.1858118947        9.0824520993       11.7505964265
  C         7.6520800549        8.6516857048       13.9956542628
  C         7.6169546333        6.4593153572       14.9297353575
  H         7.9436478538        4.8243862528       13.5933503553
  C        12.0075825041        6.1910308164        4.0623800548
  C         9.5505968198        5.9367485569        3.3546636489
  C        11.3397467361        3.4016405520        2.0816018588
  C        11.4071963637        2.0039935445        2.0520922605
  H        14.1137090862        3.4402599747       13.3400107377
  H        14.2546669634        1.7025394334       13.4541453067
  C        13.1405302878        2.6848580794       15.0214580483
  S         8.0504323799       10.5687017752       12.4840450067
  N         7.6412003343       10.0613713450       14.0175363163
  C         7.5265762989        7.9061439471       15.1840785783
  H         7.2584612116        5.8676046757       15.7379725248
  H        11.8368158989        7.0804619375        4.6087044250
  H        12.2607697629        6.4342431588        3.0471005944
  C        13.2147596964        5.3814480468        4.5964954771
  H         9.3349731177        6.8701282955        3.8915539170
  H         9.7822126084        6.0833237307        2.3236226984
  C         8.2478441029        5.1032834649        3.3782227358
  H        11.5630094420        4.1142558772        1.2709525297
  C        11.6906271531        1.2195494456        0.8153766355
  H        13.8344563104        3.5031684279       15.4214061880
  H        12.1499865046        3.0840022820       15.1050017850
  C        13.2438380178        1.4682366384       15.9093783864
  C         7.4204137783        8.5574829144       16.4060249459
  H        13.1848863009        4.8665244137        5.5642529254
  H        13.4624388892        4.4691799311        3.9567194941
  C        14.4271251975        6.2439771183        4.6660303613
  H         7.8023503322        5.1566101951        4.3511619930
  H         8.4227034937        4.0204143904        3.1730842766
  C         7.2946034228        5.6591282258        2.3183021345
  C        11.7395202828       -0.1596142930        0.7307100712
  C        12.0400487583        1.9536957505       -0.4100657779
  H        14.2544804636        1.6021030644       16.2649482063
  H        13.1562221060        0.5289104259       15.3206199135
  C        12.4323462286        1.4749172166       17.1838942296
  H         7.6767019158        9.6517150682       16.4969073790
  C         7.1732159090        8.0975089909       17.6655639813
  H        14.2596487177        6.9954656791        5.3858420718
  H        14.5242536585        6.7141778749        3.6846083786
  C        15.7709865699        5.5384244498        4.9090442434
  H         7.3752476255        6.7339118803        2.4303119131
  H         7.7729906431        5.4457968150        1.3543152473
  C         5.8130811936        5.2531365225        2.3812947334
  N        11.6142369511       -1.0271193720        1.7665908315
  C        12.1552879617       -0.7887887199       -0.3987033456
  C        12.2471425916        1.3148161282       -1.6202230030
  H        11.9931745428        2.9565018623       -0.5426562069
  H        12.3829676542        2.4022051366       17.8118996932
  H        12.7877422108        0.6876590357       17.9245951410
  H        11.3968417790        1.2222746490       16.8470731210
  S         6.7892374126        6.4847196233       18.1241918736
  C         7.0120987998        9.0957213984       18.7810196818
  H        15.6146696215        4.5081763429        5.1997723556
  H        16.1335210648        5.3773770752        3.8902331682
  C        16.6580456489        6.1342404041        5.8872354212
  H         5.4214254895        5.2373778724        3.3742209855
  H         5.7163619783        4.2436853630        2.0301311058
  C         4.9262768116        6.1175024816        1.4488226591
  S        11.7221907688       -2.5124479469        1.2589672821
  N        12.1667862036       -2.1476296647       -0.2143559959
  C        12.3108562726       -0.1739912930       -1.6701840651
  H        12.5090051078        1.9377377183       -2.4850599321
  C         6.5909864549        7.1160382784       19.7583526616
  N         6.6789595393        8.4531885008       19.9373037427
  O         7.0236919979       10.2947094623       18.6453294718
  H        17.3451113321        6.8505563493        5.3939931230
  H        16.0966713347        6.5819477438        6.7017871011
  C        17.4893173684        4.9982541795        6.5135550702
  H         5.3167589225        6.0025471305        0.4126189479
  H         3.9745563266        5.5765147840        1.3935614861
  C         4.6617767466        7.5788505658        1.9142216027
  C        12.6624511672       -0.8658324530       -2.8508793280
  S         5.9837320780        6.2263170069       21.0738965869
  C         6.6165381000        9.0736063903       21.1869538216
  H        17.0467615694        4.6631734672        7.4612836981
  H        17.4435954257        4.1435587882        5.8612586551
  C        18.9472184349        5.5371041933        6.7489905016
  H         5.3338834149        7.9091568137        2.7092727905
  H         3.5957427640        7.4624016702        2.2394392047
  C         4.7797486055        8.4427271272        0.6139094344
  H        12.6694194943       -1.9271559547       -2.8184966738
  C        13.1219482752       -0.4600444652       -4.0813268131
  H         5.7309187713        8.8303680645       21.6760842133
  H         6.4353065548       10.1764289394       21.0087811699
  C         7.9703886956        8.9272495320       21.9153597629
  H        19.2819782808        5.0447852326        7.6360436334
  H        18.9394232607        6.6104496706        6.8773991322
  C        19.9297688842        5.2154269421        5.6396660538
  H         5.7450459672        8.2659264827        0.1145488882
  H         4.0741104808        8.1270709535       -0.1525691956
  C         4.7686768399        9.9480216133        0.9692360547
  S        13.7447355872        1.0656607927       -4.4425856641
  C        13.3050455916       -1.4838521929       -5.1129419439
  H         7.9296219485        8.0604752163       22.5873188409
  H         8.2226222370        9.8251704755       22.5442458790
  H         8.8459491805        8.8482774073       21.2287524697
  H        20.2283856103        6.1250171724        5.1952103647
  H        20.8196226861        4.9011463181        6.0233934163
  H        19.5880182063        4.4903520724        4.8810461123
  H         3.9091082126       10.1241293258        1.5314761714
  H         5.6063350861       10.3025279983        1.6394179015
  H         4.8976003848       10.4635747596       -0.0370327318
  C        14.2145852999        0.3687350341       -6.0448371831
  N        14.0523294310       -0.9630887393       -6.1489411550
  O        13.0080408534       -2.6856361399       -5.0014366279
  S        14.8664088105        1.2637823979       -7.4008862787
  C        14.4105621195       -1.7218946601       -7.2979400589
  H        14.7457064224       -2.7144983223       -6.9236084937
  H        15.2367228694       -1.3269091880       -7.8707914643
  C        13.1794857056       -1.8384681000       -8.2113231312
  H        12.4919122287       -2.6837162069       -8.1486858223
  H        13.4322432890       -1.9215850926       -9.2734405983
  H        12.5561439323       -0.9642239338       -8.1202205095
  H        -1.1120735147       12.5128707030       16.6418270110
  C        -1.4716161261       13.3790667846       16.2271977299
  H        -0.7705536381       13.8141465948       15.5490120017
  C        -1.7202182040       14.2706216380       17.4351621928
  C        -2.8345041614       13.1020102772       15.4812916942
  C        -2.2235124944       13.5887573789       18.6997358564
  H        -0.7109470735       14.6874074386       17.6862970432
  H        -2.3342705227       15.2047200960       17.2710894560
  H        -3.1607171487       13.9413512596       14.8614790058
  H        -2.8204310211       12.2228375087       14.9161506037
  H        -3.6810904718       12.9409084083       16.1627791255
  C        -1.1675852298       13.5493528583       19.7877262723
  H        -2.5228758617       12.6323543492       18.4255250682
  H        -3.0849533356       14.0550340820       19.0521924398
  C        -1.7288208519       13.2892520574       21.2326203650
  H        -0.5065835059       12.8305501216       19.4916655231
  H        -0.5465995813       14.4456194482       19.7873897728
  C        -0.7181643696       12.6936962890       22.2930726054
  H        -2.6598887564       12.7169490267       21.1995687668
  H        -2.0082685841       14.2421381145       21.5968347346
  C         0.3054206203       13.7321728267       22.7055224169
  H        -1.2724111248       12.4219778298       23.1641915053
  H        -0.2910221663       11.8478236775       21.7932701442
  C         1.5168372165       13.0562122152       23.4554721742
  H         0.7715680806       14.2266787763       21.8027131151
  H        -0.1702505915       14.5048119978       23.2371565262
  C         1.8848020108       11.7290237378       22.7632306703
  C         1.0111299996       12.2959545735       24.7464881596
  C         2.7425160047       14.0089486863       23.5741099159
  C         1.6425693098       10.6069802216       23.5385056231
  C         2.3727158272       11.3458157156       21.4840907579
  C         1.1532948197       10.9772972500       24.7812051304
  C         0.6225323879       12.8870309155       25.9412500558
  H         2.9236097578       14.5008778131       22.6251935816
  H         2.2216434621       14.7518854704       24.2299397367
  C         3.9686238361       13.3789347821       24.1978121630
  S         2.2652638451        9.2069362688       22.8330208950
  C         2.4915014860       10.0198207462       21.3342280934
  H         2.5676852585       12.1138154099       20.7269984587
  C         0.9546495900       10.2936368815       25.9011541444
  H         0.5869128942       13.9836433353       25.8625222974
  C         0.3404003351       12.2046224667       27.0567301885
  H         4.4550693144       12.6839445998       23.4429646830
  H         3.6288253462       12.7331222335       24.9923897519
  C         5.0321529164       14.3701075719       24.6822659001
  C         3.0453847801        9.2252011800       20.2302566731
  C         0.4862987177       10.8490642048       27.0865433814
  H         1.1808658464        9.2175373138       25.8497751104
  C        -0.1896599826       12.4583808506       28.3086934997
  H         5.8639440329       13.7626827007       24.9956920494
  H         4.6670712438       15.0344243632       25.4583169899
  C         5.6264548596       15.1995201947       23.4505392684
  C         2.9097847423        7.8213286913       20.0291022711
  C         3.6539873634        9.9673941247       19.1655111075
  C         0.1097946179       10.1145786396       28.2902028393
  C        -0.2803755161       11.3401139087       29.0681096745
  S        -0.7869498129       13.9014134486       29.1077806611
  H         6.2458648341       16.0471956627       23.8999657947
  H         4.9154214211       15.7499422782       22.8604279275
  C         6.5007522329       14.3840550077       22.5118583906
  N         2.2715269234        6.9315099708       20.9043665468
  C         3.2799790955        7.2579234917       18.8011861730
  C         3.9671607000        9.4617499069       17.9549830543
  H         3.9175051777       10.9838693013       19.2749424025
  C         1.2589142567        9.3367568500       29.0036456450
  C        -1.1424092981        9.2011716250       28.1470730870
  C        -0.7693841036       11.6185066946       30.3554454378
  C        -0.8893513830       12.9617479508       30.6137759877
  H         7.5427589597       14.6108996322       22.6017250917
  H         6.5411543367       13.4080215859       22.8786750690
  C         5.9835085740       14.3278145113       21.0552988430
  S         2.2386222762        5.4751589039       20.1463004921
  N         2.9770230853        5.8722067308       18.7527537077
  C         3.7321609346        8.0071685460       17.6809811622
  H         4.2711921049       10.1501349909       17.2454635188
  H         1.4257137771        8.4762665599       28.3933762579
  H         0.8665758960        8.9505874202       29.9567896774
  C         2.5059044332       10.1551947930       29.3161624904
  H        -0.7949801063        8.4236421533       27.3587378176
  H        -1.3869069036        8.6358659700       28.9967710126
  C        -2.3995212346        9.8403541284       27.6308144388
  H        -0.8800886248       10.7726869701       31.0650206090
  C        -1.2294031777       13.5682013245       31.9268343677
  H         5.9945065071       15.3448428252       20.7931455179
  H         4.9235243687       14.0225321966       20.9737944390
  C         6.9284829829       13.4949600204       20.1665972795
  C         3.9298854602        7.3547681763       16.4396425447
  H         2.9301509439       10.6522431559       28.4242992776
  H         2.3163614005       11.0113767407       30.0617963183
  C         3.6428959466        9.3268066375       29.8884229201
  H        -2.1805847029       10.4097870672       26.7670778117
  H        -2.7805317229       10.5106719334       28.4241651470
  C        -3.4658375796        8.7278794276       27.2592699999
  C        -1.3905339890       14.9410591196       32.1625271848
  C        -1.4712071725       12.6694428060       33.1308646300
  H         7.9516065177       13.6540136185       20.3975402292
  H         6.6884092636       12.4441214119       20.2165837290
  C         6.9486062176       13.9302574451       18.7997651352
  H         3.8815259726        6.2622012122       16.4751537996
  C         4.1774589072        7.7362445742       15.1513568149
  H         4.0172362324        8.6391001933       29.1806063564
  H         3.2946999005        8.6571868363       30.6314585872
  C         4.7856823263       10.2701428908       30.4809292016
  H        -3.2562000194        8.2795747236       26.3190331263
  H        -3.3369976442        7.9587769488       28.0536070069
  C        -4.8348909110        9.2532840286       27.1569232843
  N        -1.1691946387       15.9544135607       31.2057711569
  C        -1.6703710699       15.4668318922       33.4520451018
  C        -1.8410610566       13.1827012265       34.4111229337
  H        -1.3164759655       11.5643701502       32.9910622286
  H         7.5013323655       14.8327898545       18.8064535373
  H         7.4160209139       13.1647894550       18.1510858693
  H         5.9601642096       14.0717592868       18.4261757371
  S         4.3737730477        9.3420049254       14.6973367220
  C         4.1291683844        6.7194754058       14.0446086962
  H         4.6769041247       11.1380749387       29.8525087881
  H         4.5502394852       10.4677070397       31.4955530667
  C         6.2129651792        9.6032700067       30.3253056057
  H        -5.0039169544       10.0692754054       27.8878959891
  H        -5.5892809360        8.4448561745       27.3732082325
  C        -5.1051350591        9.7143233436       25.6880630691
  S        -1.3278049899       17.4338861467       31.9499673401
  N        -1.6861149059       16.8859781100       33.4460186684
  C        -1.9061565514       14.6942809695       34.6121581499
  H        -1.9902000152       12.5727646115       35.2848934310
  C         4.6146130955        8.6689417950       13.0190941554
  N         4.3299357184        7.3239915690       12.8775818330
  O         3.8140014224        5.5269162951       14.1959496815
  H         7.0475390664       10.3388217391       30.6039895509
  H         6.2654339312        9.2339664274       29.2573343721
  C         6.3691812077        8.3270416052       31.2102824363
  H        -4.2669195391       10.4482226190       25.5146219718
  H        -4.9051534367        9.0031245479       24.8840510633
  C        -6.3642678977       10.4989193373       25.4838500431
  C        -2.0646618891       15.4069104605       35.7874158510
  S         4.7998438140        9.6147364871       11.5492841400
  C         4.4065858986        6.6733118238       11.5460823190
  H         7.1297949041        8.5496142031       31.9084083521
  H         5.5118097666        8.0287092330       31.7547433832
  C         6.7927234822        7.1145267021       30.4174155612
  H        -6.2972305501       10.9525538804       24.5109995467
  H        -6.3703688845       11.2588618692       26.1979588686
  C        -7.4960848615        9.5453474343       25.4790919929
  H        -1.6051958318       16.3677726827       35.7868062054
  C        -2.6910318364       15.0818724153       36.9948378967
  H         5.3084502013        6.9631034462       10.9804026495
  H         4.6007032207        5.5843777794       11.6117616213
  C         3.1352491050        6.7228746852       10.7184000221
  H         7.6644030203        7.3798731033       29.7756013472
  H         6.0005863234        6.8074230229       29.7079342063
  C         7.2003477259        5.8567699590       31.2120133969
  H        -7.1808306948        8.6015237846       24.9367548806
  H        -7.7573661969        9.1188189963       26.4656642511
  C        -8.7200562335       10.1893221632       24.7809540969
  S        -3.5315957989       13.6045668397       37.2897103030
  C        -2.7481953872       16.1352736826       38.0655727085
  H         3.2303010489        6.1361656648        9.8251226878
  H         2.2751960682        6.2594565119       11.2229497626
  H         2.9340729620        7.7160637244       10.4325457249
  H         6.2535560664        5.6714654833       31.6547611127
  H         7.9003005318        6.0378804761       32.0293890082
  H         7.4364718287        4.9813655665       30.6476842963
  H        -9.0192272611       11.0755625123       25.4407158512
  H        -9.4079140025        9.3531621109       24.7547856572
  H        -8.5231269306       10.4673540269       23.7377026786
  C        -3.8941565573       14.3618828712       38.9012570454
  N        -3.5291218046       15.6173556126       39.0256104598
  O        -2.3814220369       17.3059479138       38.0261711407
  S        -4.7735340514       13.4989784010       40.2151670611
  C        -3.8108235687       16.3853290443       40.2266650705
  H        -4.1306308700       17.3955868335       39.9293789442
  H        -4.7057397287       16.0610988344       40.6849105234
  C        -2.5798961909       16.1596350547       41.1183635124
  H        -1.9238095598       17.0304051863       41.2052145568
  H        -2.8278215206       15.9103353946       42.1530964868
  H        -1.8896103190       15.3704211004       40.7149001956
