352
i=
  H         2.3922157176        1.0997185361       13.1499391322
  C         3.2032199909        1.8306772548       12.8561056304
  H         4.1434807006        1.2646341321       12.8267457517
  C         3.0408336706        2.3546836427       11.4377460107
  C         3.3450321923        2.8416361698       13.9590680446
  C         4.4097209044        2.5500244406       10.7325145166
  H         2.3195232939        3.1523860512       11.4080525028
  H         2.5335007414        1.6502627221       10.8347723792
  H         4.2429469092        3.4862043758       13.8076732426
  H         3.4654292284        2.3465332648       14.9325895569
  H         2.5025972051        3.4819863486       14.0362954861
  C         5.0689574765        1.2768699244       10.2159910152
  H         4.2833519145        3.2897936059        9.9695892337
  H         5.0292178007        3.0321849337       11.4902122071
  C         5.6297219927        1.3675684605        8.8129061607
  H         4.2746441347        0.4395697655       10.2968352107
  H         5.8902219220        0.9870220744       10.9342423839
  C         6.7615157051        2.3070579546        8.6442560542
  H         4.8081532360        1.6868102087        8.1416227314
  H         5.8007239812        0.3500550277        8.4037133058
  C         8.1089891336        1.7682731337        9.2511671452
  H         6.9256807380        2.5031503163        7.5837341505
  H         6.5144946003        3.2016061625        9.1242346589
  C         9.3842406937        2.7381458292        9.2875187985
  H         8.4615692997        0.9866465848        8.5687711130
  H         7.8067177169        1.1703732548       10.1043619442
  C         9.0382099609        4.0543471802        9.9465803961
  C         9.7953629583        3.5040333790        8.0499210042
  C        10.6518966188        2.0696663542        9.9868190692
  C         9.2293082549        5.1788211127        9.1348501110
  C         8.4277305567        4.3903304019       11.1544851728
  C         9.7188039192        4.8635534277        7.9299783177
  C        10.2190575763        2.9157032805        6.8543887322
  H        10.2787906299        1.7500354260       10.9631444646
  H        10.8309522156        1.1546809342        9.4700429830
  C        11.8508482618        2.9257647919       10.2724087031
  S         8.7871845396        6.6686798001        9.8082116475
  C         8.4643429792        5.7958319323       11.2863435057
  H         8.2786144065        3.5974649160       11.8762591957
  C        10.0679631972        5.5618507892        6.8489651204
  H        10.1565870939        1.8153920327        6.8660171389
  C        10.5795067901        3.6131143038        5.7344801173
  H        11.5493100225        3.8333667334       10.7842610523
  H        12.3288834203        3.0725497501        9.2184757923
  C        12.9744178018        2.4451183472       11.2225898653
  C         7.9481179244        6.5402878362       12.5160074149
  C        10.5594821746        4.9551882860        5.6535360766
  H         9.9462825827        6.6191561135        6.9106854360
  C        10.9605699759        3.2226341329        4.4465948381
  H        13.6996848201        3.1826946509       11.1120528944
  H        13.2547365804        1.4575639161       10.7923489406
  C        12.5019335270        2.4046097187       12.7002711633
  C         7.8397527904        7.9600153012       12.7075712866
  C         7.4293738380        5.7055029015       13.6464784500
  C        10.9206203939        5.6887927702        4.3650750406
  C        11.1871765675        4.3333846680        3.6507556439
  S        11.1972980656        1.7351804510        3.5992788634
  H        12.0417291329        3.3009414833       12.9049967805
  H        11.7757068512        1.6509622686       12.8261688911
  C        13.5619274655        2.0920985842       13.7124890231
  N         8.1946846896        8.9744011880       11.7305284388
  C         7.5732282606        8.5376326330       13.9196688741
  C         7.0317818277        6.3053729287       14.7924596130
  H         7.4644270755        4.6177375356       13.6207859264
  C        12.1905651602        6.5117420603        4.5362646411
  C         9.7766475132        6.5310034780        3.6997436314
  C        11.8069370357        3.9449147891        2.4457168840
  C        11.7472740319        2.5976842469        2.2618067725
  H        14.0961946860        3.0404291167       13.9428628673
  H        14.2826714007        1.4002547734       13.2491662174
  C        13.0859504542        1.3651195017       14.9633232852
  S         8.3701207597       10.3672146319       12.5808207138
  N         7.7793853027        9.9038727792       14.0247229333
  C         7.1054310751        7.7402532857       15.0104482113
  H         6.7643076424        5.7062539374       15.6506040849
  H        12.0337421752        7.1428874870        5.4111777491
  H        12.3167537562        7.1949795771        3.6282943068
  C        13.4765289356        5.6887193783        4.8710053564
  H         9.3060784570        7.2774812973        4.3723310668
  H        10.1176680252        7.1082385728        2.8627837132
  C         8.5988934578        5.6889934224        3.2604761278
  H        12.1414150156        4.6677537546        1.7039698102
  C        12.1678178464        1.8092316130        1.0313434920
  H        12.1792537333        0.8238543366       14.7473221245
  H        13.7755458098        0.5555350797       15.1707166568
  C        12.7994756718        2.2146746331       16.1424565592
  C         6.9589060846        8.3699170214       16.2647234547
  H        13.2897309820        5.2354513101        5.8030312727
  H        13.6263771661        4.8359925523        4.1961815733
  C        14.7431772131        6.4512200767        5.0522918509
  H         8.2187006260        4.9485359931        4.0236612290
  H         8.8932653654        5.1358548632        2.3359252533
  C         7.4135238839        6.6198414328        3.0260253520
  C        12.0826301487        0.4266889555        0.8654972620
  C        12.3879551522        2.6308252805       -0.1729527067
  H        12.2075961638        3.0574908251       15.7068401934
  H        13.7299888439        2.5572068581       16.5263819267
  C        12.0485380535        1.5308799112       17.2787584416
  H         7.2963470670        9.3978119091       16.3198912326
  C         6.6223001003        7.9712807689       17.5422781487
  H        14.5439283444        7.1993887836        5.8170377093
  H        14.9340473724        6.9430073108        4.1171243690
  C        15.8253031798        5.5581280207        5.6123446195
  H         7.1308954802        6.9484830215        4.0329752723
  H         7.7533551501        7.5172945609        2.4209658811
  C         6.2904121357        5.8242008305        2.4142675240
  N        11.8806885904       -0.5126200533        1.8417702223
  C        12.3199284226       -0.1588911559       -0.3497711374
  C        12.5587120369        1.9981609320       -1.3792735971
  H        12.5667201303        3.7168769243       -0.0454637005
  H        12.6317603172        0.6119533529       17.3894041532
  H        10.9661878241        1.3902255524       17.1313417922
  H        12.1752149004        2.1369163558       18.1702699148
  S         6.3065610154        6.4368244228       18.0737841722
  C         6.6316345172        9.0128014521       18.6087211639
  H        15.4717320157        4.7402633827        6.1695776430
  H        16.3999372993        5.0758712058        4.8331625644
  C        16.7795979773        6.2496711696        6.6018834235
  H         6.2011429890        4.9292826194        3.0409235068
  H         6.5304032969        5.6255969121        1.3222823938
  C         4.9362322602        6.5600073909        2.5166297468
  S        11.8972460831       -1.9918586549        1.1963833615
  N        12.3094354746       -1.5405033780       -0.3226361905
  C        12.5952049972        0.5252892551       -1.5599277658
  H        12.7185824638        2.6954367833       -2.2151634420
  C         5.9748044556        7.1185908181       19.6462504990
  N         6.2565041381        8.4157927585       19.7448392179
  O         6.8175138493       10.2273077572       18.4312281380
  H        17.3431937468        6.9559865585        6.0447225100
  H        16.2773702844        6.9693310898        7.3539788426
  C        17.7160574167        5.2513487410        7.3165726993
  H         4.1622797965        5.9141170421        2.9821929556
  H         5.1267664784        7.3994007548        3.2634567709
  C         4.6572461201        7.3030043527        1.1888279908
  C        12.7437641065       -0.1234716688       -2.7787256679
  S         5.7695752022        6.0937970579       21.0995083545
  C         6.1488217023        9.1888208637       20.9680633932
  H        17.2440671970        5.0149059025        8.2982109227
  H        17.9055377369        4.4640206700        6.6242788255
  C        19.0484377044        5.9389011486        7.6155579453
  H         4.7332512819        6.5472736667        0.3896091244
  H         5.5022305571        7.9133330997        0.9882996303
  C         3.3868396064        8.1249185112        1.1572504828
  H        12.5564672958       -1.1388841026       -2.7112026446
  C        13.4011142044        0.2065664257       -3.9613932146
  H         5.3286396672        8.7026261059       21.5053422918
  H         5.8139948304       10.2693587889       20.6792099665
  C         7.3975401101        9.1337047933       21.8915845756
  H        19.5147092872        5.4293533209        8.4595621215
  H        18.9298906199        7.0787125187        7.8349406748
  C        19.9392566019        5.8820144700        6.4063536793
  H         3.2290151337        8.1614395030        0.0670228975
  H         2.5428513748        7.6740848234        1.7280025345
  C         3.5828125666        9.5283743685        1.7316272494
  S        14.0153300937        1.7348964550       -4.3617562487
  C        13.4597275336       -0.7839356393       -5.0496259004
  H         7.2907474742        9.7882438998       22.7221048478
  H         8.4017032912        9.2329066165       21.4237425187
  H         7.4234116814        8.0673192580       22.2220466920
  H        19.7816169644        6.6550196798        5.7310932597
  H        20.9380653532        6.1609342566        6.8096181514
  H        20.1019927188        4.9524305253        5.8754072759
  H         2.9077343979        9.6554494801        2.5279505016
  H         4.6002350036        9.8382230660        2.0676753204
  H         3.2252654122       10.1537279311        0.9250473649
  C        14.6293364646        1.0065892684       -5.8528140554
  N        14.2805300858       -0.2893936644       -6.0159438388
  O        13.1021281450       -1.9455365016       -4.9576597066
  S        15.4296843085        1.9091744531       -7.1409542575
  C        14.6335843981       -0.9790066467       -7.2461135918
  H        14.7446723342       -2.0380380445       -7.0319992314
  H        15.5605999067       -0.6808750449       -7.7703910508
  C        13.4037108494       -0.6772719071       -8.1859772624
  H        12.4641836149       -0.4908882562       -7.7243286710
  H        13.3000205029       -1.4038733629       -9.0995601361
  H        13.5680082472        0.2837722246       -8.7130483901
  H        -1.6878309949       14.2471571343       14.8449393228
  C        -2.5075796304       13.7271609413       15.4101943994
  H        -3.1927136316       14.5186129987       15.6479625386
  C        -1.7726393445       13.3216308110       16.6577156672
  C        -3.1577935563       12.7684378632       14.5705631517
  C        -2.5129944294       13.7042761059       17.8669449679
  H        -1.6401724406       12.2986843966       16.7935973118
  H        -0.8308347681       13.7801080016       16.6090059571
  H        -2.4143975002       12.1391205247       14.0406023258
  H        -3.6406687820       12.1728145702       15.2895333905
  H        -3.8014195591       13.2195926170       13.7862575758
  C        -1.6174278203       13.7406975729       19.1128245196
  H        -3.3752938973       13.0844873725       18.0549584206
  H        -2.8455219596       14.6863189569       17.6727001118
  C        -2.2752328502       13.4754955262       20.4624396866
  H        -0.7886787373       13.0288134764       18.9983797315
  H        -1.1147106053       14.7205637813       19.1653049001
  C        -1.3033492839       12.7410207666       21.3965134704
  H        -3.1267584311       12.7656432648       20.4208967116
  H        -2.6426965162       14.3852156098       20.8933887311
  C        -0.3252148223       13.6738171763       22.0857052203
  H        -1.7916673467       12.1901552709       22.1483440714
  H        -0.7723725647       11.9236700014       20.8643909106
  C         0.8367294859       13.0311184637       22.8822161164
  H         0.0838768552       14.3250671414       21.3288433067
  H        -0.8476232002       14.4037775655       22.6733918259
  C         1.2769231747       11.7058915877       22.2126861237
  C         0.4714625301       12.3263628407       24.1114430291
  C         2.0345181062       14.0547757656       23.1031111722
  C         1.0812445409       10.6153167030       23.0450257857
  C         1.9008144196       11.3124837463       21.0091239520
  C         0.5553734565       10.9994981988       24.2713070281
  C         0.0584977016       12.9710762791       25.3370305544
  H         2.1472627165       14.5183599607       22.1759185533
  H         1.7599366322       14.8542018800       23.7585676062
  C         3.2902220166       13.4659780965       23.7392256202
  S         1.6231756607        9.1123643177       22.4374791616
  C         2.1030069996        9.9632495743       20.9762105903
  H         1.8680166817       12.0635158788       20.1931487392
  C         0.1794303018       10.3454724072       25.3927471108
  H        -0.0406864893       14.0241787129       25.4711994914
  C        -0.1726419579       12.3591074969       26.5138082453
  H         3.5855417644       12.6493945877       23.1442354363
  H         3.0780138381       12.8703655216       24.6377100881
  C         4.3716769030       14.5080610913       23.8955425468
  C         2.6140689479        9.3179976623       19.7678007145
  C        -0.1039193849       10.9727003038       26.6037041564
  H         0.1965664550        9.2746806744       25.4943295215
  C        -0.5796276916       12.6596640176       27.8128130248
  H         5.1610686772       13.9835269562       24.4780856441
  H         4.0679140988       15.4695982274       24.4127475980
  C         5.0724768191       14.8553748174       22.5838403241
  C         2.6635371210        7.9195781880       19.4888270810
  C         2.9191208564       10.2047731902       18.6262702535
  C        -0.4917673125       10.2489419390       27.7752740880
  C        -0.7802395024       11.5281057959       28.5794036072
  S        -0.8960843901       14.1650602049       28.6124188598
  H         5.4818024879       15.8777074716       22.6455683564
  H         4.3091638737       14.9692568317       21.7637710300
  C         6.1874021357       13.8560046711       22.2005301842
  N         2.2921425141        6.9028992611       20.3593403515
  C         2.9862416247        7.4226330181       18.2475955622
  C         3.0656858626        9.7234361729       17.3205517609
  H         3.0284496444       11.2638644005       18.7542154196
  C         0.5192317623        9.3663437248       28.4271948320
  C        -1.9132689767        9.6418260751       27.5849019049
  C        -1.1496570480       11.9270129304       29.8976288971
  C        -1.1429282807       13.2704117003       30.0086668722
  H         7.1925952553       14.2256113255       22.6258924295
  H         6.0492491042       12.8676424708       22.6817052334
  C         6.2571369306       13.4995084403       20.7390912395
  S         2.5084262645        5.4598314101       19.6429643674
  N         2.9272701876        6.0069318011       18.2003093017
  C         3.1870050622        8.2312927706       17.1176799502
  H         3.3667823802       10.3888463650       16.5225321051
  H         0.8068620873        8.5140466117       27.7365872210
  H         0.0070596366        8.7078117400       29.1892222188
  C         1.7677945010       10.1551885056       28.9929644039
  H        -1.8155297457        8.7257552735       26.9253175482
  H        -2.2318367267        9.2328841914       28.5315521167
  C        -2.9710018927       10.6199817265       27.0605481122
  H        -1.4060781261       11.1954473310       30.6048449540
  C        -1.4711197849       14.0195094955       31.3412902090
  H         5.8434937417       14.3847995487       20.3212458733
  H         5.6743189780       12.5504960576       20.5350497371
  C         7.6902459708       13.5383997286       20.2840424905
  C         3.4201201405        7.5686487104       15.8730026327
  H         2.0915625865       10.8726573234       28.2712844158
  H         1.4898591071       10.6490170040       29.9190204230
  C         2.9115086786        9.2367727478       29.4028217035
  H        -2.7606418030       11.1657827765       26.1955972478
  H        -3.1731748906       11.5015289882       27.6468199054
  C        -4.1708700604        9.8590509350       26.8353299836
  C        -1.4719953933       15.4617963156       31.5180251441
  C        -1.7040589819       13.2517090927       32.5780099435
  H         8.1870889077       14.4062134875       20.7884121653
  H         8.2987629807       12.6016500630       20.6040737726
  C         7.8371529125       13.8528755059       18.8135335131
  H         3.3892918627        6.4674131769       15.9450948799
  C         3.7331754945        8.0623199199       14.6439518137
  H         3.1369108253        8.4203182500       28.6695768736
  H         2.5301200998        8.7210068769       30.3073385808
  C         4.1836761369        9.9660361906       29.8150906328
  H        -3.9966274955        9.2149633942       25.9066656622
  H        -4.4169751782        9.2445490711       27.7379193495
  C        -5.3317368345       10.7902685807       26.3893270351
  N        -1.2039007348       16.4074822767       30.5183682708
  C        -1.7718357359       16.0782338768       32.7344816135
  C        -2.0741449213       13.8722146274       33.7914504831
  H        -1.5609360719       12.1960105744       32.4796189654
  H         8.0778970177       14.8353830141       18.6188090781
  H         8.6554225880       13.1999680919       18.4035488522
  H         6.9484595607       13.6045990474       18.2614571309
  S         3.9973830211        9.7055668750       14.2213910482
  C         3.8981509928        7.1266149819       13.4674260795
  H         4.3712050352       10.7058795348       29.0413675946
  H         4.1238615756       10.5282208517       30.8064991442
  C         5.4373633830        9.0792296296       29.6141384484
  H        -5.1621077975       11.4766849809       25.5797591742
  H        -5.5788878556       11.4186346385       27.2624958308
  C        -6.5987309081        9.9568628353       26.1848071885
  S        -1.4364937974       17.9161047207       31.1358204855
  N        -1.8353298187       17.4964953577       32.6661835573
  C        -2.1519492353       15.3270487629       33.8862520758
  H        -2.2823563483       13.2681267995       34.6236487479
  C         4.3256580492        9.1861964091       12.5017725555
  N         4.4699613795        7.8161677391       12.4249049199
  O         3.9512819421        5.9260331606       13.5758552905
  H         6.3731121605        9.6273414949       29.7853888266
  H         5.3902813487        8.6963562766       28.6183415703
  C         5.3985000108        7.8940812007       30.5897108401
  H        -6.3601489389        9.0996075721       25.5574617713
  H        -7.0563804998        9.5828360272       27.0648482843
  C        -7.7741325373       10.6264812739       25.5107370070
  C        -2.4008843407       16.0374099992       35.0820793971
  S         4.8159614442       10.1070929322       11.0168583089
  C         4.8149684000        7.0647535021       11.2623305699
  H         5.2708094522        8.1773817055       31.6349388854
  H         4.4741932475        7.3580099163       30.3237693049
  C         6.5535882634        6.9280074886       30.3497239990
  H        -7.5078717404       11.0283613662       24.4836434844
  H        -8.0632114969       11.4906270542       26.1050190996
  C        -8.9111884876        9.7652200778       25.2940751162
  H        -2.0968051967       17.0778160361       35.0423107588
  C        -2.8283303706       15.6572735616       36.3481573688
  H         5.6098701859        7.5492935191       10.7070056791
  H         5.2043808936        6.0865628783       11.5388661088
  C         3.5046011417        6.7727594583       10.5137850927
  H         7.4876651818        7.3918893809       30.3825386169
  H         6.4848500810        6.6224327507       29.3549371125
  C         6.5603221184        5.8039982686       31.3580914890
  H        -9.4734004859       10.1097198361       24.3699970428
  H        -8.5755189465        8.8040967257       25.1472291664
  C        -9.8993072699        9.7123176183       26.4369827941
  S        -3.4208077905       14.0708769481       36.8175851133
  C        -2.9299969793       16.7821989850       37.3253372318
  H         3.0376662141        7.6431076488       10.1349150856
  H         3.6451065545        6.1709432436        9.5761187295
  H         2.8154692259        6.2485106939       11.1881963628
  H         6.7748258770        6.2560870462       32.3333021273
  H         7.3287087172        5.0720518548       31.1969976786
  H         5.6018879981        5.4545427645       31.2434771975
  H       -10.5236628142        8.9217219183       26.2198604266
  H       -10.4976607033       10.6246162274       26.5808625677
  H        -9.3427454744        9.3588610402       27.3624070578
  C        -3.9941229866       14.9518163913       38.2321148542
  N        -3.6935377599       16.2770518607       38.3377120355
  O        -2.6230724818       17.9453097306       37.1283151895
  S        -4.6334049841       14.1460125872       39.6637288800
  C        -3.9648249695       17.1277877494       39.4759874653
  H        -4.2560105442       18.0997205213       39.1541903168
  H        -4.8316974014       16.7712533575       40.0362595648
  C        -2.8824858476       17.2081437253       40.5601845205
  H        -2.9954196149       18.0948406845       41.2016546107
  H        -2.9559666006       16.3171450011       41.1971176808
  H        -1.9082345340       17.2127905370       40.1896414310
