352
i=
  H         4.1707645476        2.0590013427       12.5614257676
  C         3.5901507420        2.9704253539       12.4234280758
  H         4.2401195398        3.8073897229       12.4120391234
  C         2.8113400923        2.7976015181       11.0930160834
  C         2.6702817138        2.9803173789       13.6152366365
  C         3.7459611016        2.7646658048        9.8863609403
  H         2.0995140599        3.6630139938       11.0443562693
  H         2.2812181508        1.8763359896       11.0512060161
  H         2.2002262744        1.9406545445       13.7009590668
  H         1.8035215579        3.6876068447       13.5002342029
  H         3.1743451555        3.2339878649       14.5368865804
  C         4.6459285393        1.5976693914        9.8990533901
  H         3.3754197135        2.7944822286        8.8849530195
  H         4.4331997166        3.6107285648        9.9628134586
  C         5.3954178017        1.2902305973        8.6087830483
  H         4.0211408817        0.7507942096       10.2358929740
  H         5.3593400324        1.7276812973       10.7627079053
  C         6.5844086872        2.1666027873        8.3747924911
  H         4.6601290653        1.3894954691        7.7428786636
  H         5.7588256145        0.2534704121        8.5764248173
  C         7.8222500882        1.6221931499        9.3236239877
  H         6.8539681385        2.2372885834        7.3740384458
  H         6.3910100937        3.1334285804        8.7114930841
  C         8.9778566004        2.6177303044        9.4539565144
  H         8.1373411488        0.6906629568        8.8460618082
  H         7.5172876632        1.3156636475       10.2684530495
  C         8.5709556848        3.9568279685       10.1432413250
  C         9.3989021679        3.2986486424        8.2045772870
  C        10.2423684540        2.0351238777       10.1551219059
  C         8.8299255748        5.0694005824        9.3325637856
  C         8.0213656692        4.4010084609       11.3232369007
  C         9.4136274160        4.6469621070        8.1445852775
  C         9.8801764052        2.7793337937        7.0331356015
  H         9.9880535889        1.5928587324       11.1030299352
  H        10.5905234076        1.2283473443        9.4365623993
  C        11.3507247710        3.0506263584       10.3086644316
  S         8.2935319738        6.5414560755        9.9289412715
  C         7.8911412033        5.7550802417       11.3497315385
  H         7.6538881093        3.6525198541       12.0474296727
  C         9.9263060271        5.2989720868        7.0608344949
  H        10.0206792659        1.7520179072        7.0047091052
  C        10.3783214565        3.3967667496        5.9339929205
  H        11.0907547011        3.9651455145       10.6653039504
  H        11.8946137383        3.0249239767        9.3439700457
  C        12.3281815946        2.4484269929       11.3465926366
  C         7.4035215273        6.4382747053       12.6311225801
  C        10.3124343618        4.7272459447        5.8283649015
  H         9.9546892773        6.3727455693        7.2558719344
  C        10.7236230501        3.0118439738        4.6512365607
  H        13.3591314563        2.5797070871       11.0581847693
  H        12.1596999665        1.3613861146       11.4129507008
  C        12.2941640042        3.1024452692       12.6768414975
  C         7.5004110900        7.7861378417       12.8728221469
  C         6.8577877861        5.6395670234       13.7698335225
  C        10.7951262568        5.4392216231        4.6560072244
  C        10.9699690895        4.1404207460        3.8847586480
  S        10.9990510568        1.5966573407        3.7943766009
  H        12.8634482276        4.0230198899       12.5154703240
  H        11.2246784695        3.3480026112       12.8112412683
  C        12.8235579408        2.2081590929       13.7893312071
  N         8.0059185069        8.7450724828       12.0140371076
  C         7.2602024967        8.3343257810       14.1434126032
  C         6.7743788986        6.1127132446       15.0733588686
  H         6.6098852631        4.6112432635       13.6866161495
  C        12.1080424493        6.2989978010        4.8001481927
  C         9.6347475883        6.3031147999        4.0220918977
  C        11.3226398736        3.8520901586        2.5113954859
  C        11.3983160317        2.5458097535        2.3738680926
  H        13.8877969054        2.1157467381       13.8153504329
  H        12.4590871189        1.2110829672       13.6354224827
  C        12.3239993466        2.5585991133       15.1384861191
  S         7.7937500714       10.2287748533       12.6565688381
  N         7.5436027958        9.7081714094       14.1960633360
  C         6.8408936959        7.6111282494       15.3092648627
  H         6.3825584323        5.3709077453       15.7263148339
  H        12.0376821305        7.1376498741        5.4011803459
  H        12.3515361711        6.7077495822        3.8057624894
  C        13.3701020383        5.4579308303        5.1624508055
  H         9.4971757916        7.0674534939        4.6475253779
  H        10.0544203618        6.7356083457        3.0615746928
  C         8.2936035478        5.5684586890        3.8082661562
  H        11.3118690020        4.5972478572        1.8227606377
  C        11.6397028505        1.8152409494        1.0940711828
  H        12.1450690109        3.5793195420       15.1772740604
  H        11.4516972013        1.9782923231       15.3791118703
  C        13.3842513639        2.2241854348       16.1603371224
  C         6.5420295012        8.2793327529       16.5310880052
  H        13.3426684500        4.9516663844        6.1094431761
  H        13.5199075751        4.7269877652        4.4202653705
  C        14.5165677425        6.4617499863        5.0778647615
  H         7.7542503258        5.3560230575        4.7041200644
  H         8.3916782576        4.6640123348        3.1498721298
  C         7.4813262359        6.4900594276        2.9799677783
  C        11.7943337304        0.3944806174        0.9108731569
  C        11.9159818583        2.5771377360       -0.1636808489
  H        14.3459665509        2.7525171907       15.9627236103
  H        13.5320611256        1.1608283188       16.1642639338
  C        12.9353095944        2.5189614083       17.5647294295
  H         6.8639083279        9.3241285901       16.5393515780
  C         6.1491984593        7.8070412490       17.7534748935
  H        14.4156390273        6.9931169203        5.9687953900
  H        14.2142380868        7.0501089422        4.2417833366
  C        15.9142926780        5.8572265954        5.0417316459
  H         7.1650043551        7.3236351767        3.6501546103
  H         8.0817956378        6.9622349238        2.2329852799
  C         6.1814479587        5.9276931306        2.5058773552
  N        11.5274079434       -0.5647937952        1.9274729228
  C        12.0702532836       -0.1336257604       -0.3735371372
  C        12.2174279653        2.0455881959       -1.4325193058
  H        11.6783520198        3.6456082694       -0.1090929900
  H        13.0081422220        3.6602261303       17.8700750922
  H        13.6003123997        1.9259879495       18.2693409863
  H        11.9187830810        2.2620711124       17.7227942730
  S         5.8733822875        6.2212101455       18.3212210617
  C         6.1734323866        8.8264182920       18.8772505059
  H        16.2056619715        5.2326894252        4.1698297168
  H        16.5277757976        6.6886983176        4.8609397822
  C        16.3813408163        5.2762260516        6.3741285242
  H         5.5837932553        5.5528768961        3.3474579787
  H         6.4629255416        4.9954234853        1.8845305617
  C         5.2084243267        6.8128985317        1.6628484036
  S        11.6062394117       -1.9968317888        1.2190980502
  N        12.2048707973       -1.5192317228       -0.2054385084
  C        12.2901435860        0.6270852740       -1.6073638067
  H        12.2182708248        2.7959529706       -2.2479562483
  C         5.8403542867        6.8228534082       19.9464514031
  N         6.0588130145        8.1833090184       20.0782362436
  O         6.3325811034       10.0245384457       18.6492513143
  H        16.2432113245        5.8946674251        7.1626546212
  H        15.7352096604        4.4302471050        6.5950535750
  C        17.8441700357        4.9346176225        6.4017849859
  H         5.3684381306        6.7120047325        0.5629738615
  H         4.1505277577        6.4284165494        1.8877247751
  C         5.3689099113        8.4015789384        1.8785523532
  C        12.5322448245       -0.1961051659       -2.7675305094
  S         5.4394258682        5.8618808795       21.3667378649
  C         6.1971315483        8.7637812347       21.4388900453
  H        18.1274852774        4.7851908768        7.4371117579
  H        17.8923351061        3.9790879077        5.8637742978
  C        18.8578409055        5.9087189331        5.7698953068
  H         6.4056544777        8.6612776905        1.6917681205
  H         5.0268561664        8.5790782958        2.9493156827
  C         4.3612171931        9.0498950077        0.9106263287
  H        12.3592261365       -1.2794688036       -2.7118610424
  C        13.2420513547        0.1399700681       -3.9768683174
  H         5.3305903206        8.5646034681       22.1054272740
  H         6.2426330154        9.8382484178       21.1547040148
  C         7.5742310876        8.5856452266       22.1565677426
  H        18.4027243624        6.9341045517        5.6323886890
  H        18.9565796369        5.6393765618        4.7417707094
  C        20.2541366095        5.8787519682        6.3918848075
  H         4.6261217203        8.9318510420       -0.1394047334
  H         3.3843328699        8.5926369806        1.0933799860
  C         4.3265601539       10.5819028344        1.1365549005
  S        13.7207634368        1.7027747071       -4.5312433653
  C        13.2930311662       -0.9092841980       -5.0195265862
  H         8.3409220017        9.4019017128       21.9252498374
  H         8.1354299310        7.6244197406       21.8784396068
  H         7.4210215423        8.7380347136       23.1859842734
  H        20.8785312489        6.7428227714        6.1548802235
  H        20.1421717400        5.7835604466        7.4673404631
  H        20.8541299536        4.9970819964        6.0472727238
  H         3.8889227869       10.9556775968        0.2908880665
  H         3.7213369926       10.5821022317        2.0054086022
  H         5.3302322384       10.8857877470        1.2506101290
  C        14.2352331638        0.8618690864       -5.9973351326
  N        13.9691774533       -0.4997520189       -6.0354829037
  O        12.9930724990       -2.0720056259       -4.8385143654
  S        15.1374880260        1.6921988758       -7.3695114644
  C        14.2283532038       -1.3226315935       -7.1603424824
  H        14.3649006776       -2.3040513440       -6.8324253619
  H        15.1826203224       -1.0231363655       -7.6125609187
  C        12.9260967903       -1.2948804164       -8.0342452570
  H        12.3558175498       -0.3199241581       -7.7919568074
  H        12.2159136395       -2.0977121005       -7.6683713269
  H        13.1225877245       -1.2033892023       -9.0959014286
  H        -4.0421281815       15.0748569046       16.6299105129
  C        -3.5386427790       14.0780214051       16.4430621297
  H        -4.2455783617       13.2776964562       16.5973110462
  C        -2.4291631812       13.8125415870       17.5118735817
  C        -2.9902877075       13.7754651334       15.0125981265
  C        -2.9964033698       13.9429861900       18.9234158387
  H        -2.0417632163       12.8877117677       17.2968452769
  H        -1.5730377846       14.5255662430       17.4517167023
  H        -3.1525535988       14.5552950646       14.2888704526
  H        -1.8705888483       13.7618254260       14.9567829204
  H        -3.4417251791       12.8213972115       14.6940771315
  C        -1.9982757662       13.9266829452       20.0043523295
  H        -3.6732501645       13.2180619670       19.1370636833
  H        -3.5233145331       14.8660678476       18.8994808434
  C        -2.5076642291       13.8835143173       21.4283412800
  H        -1.4939396037       13.0018933384       19.8655919554
  H        -1.3668650760       14.8369222947       19.8005793292
  C        -1.5824677819       13.2987905768       22.4117741556
  H        -3.4923326991       13.3015934922       21.4162297815
  H        -2.7773877153       14.8952817753       21.6818745502
  C        -0.2731739615       14.1756097539       22.6293771798
  H        -2.0134983047       12.9288335048       23.3597835227
  H        -1.3147295077       12.3685343504       21.9497018553
  C         0.8946123885       13.4119487489       23.2831660871
  H         0.1209274835       14.6122149830       21.6954646268
  H        -0.4649633045       15.0165626558       23.2023666285
  C         1.3272903588       12.1453971920       22.5013329849
  C         0.5568741112       12.6103654133       24.4571193827
  C         2.1348077403       14.3252764356       23.5222444195
  C         1.1172436078       11.0126739659       23.2722935966
  C         1.6209626154       11.7610514985       21.1384732715
  C         0.6555432182       11.2399073130       24.5475012055
  C         0.2421494739       13.1498557601       25.6436366777
  H         2.3127549081       14.7699428363       22.5186205332
  H         1.8859373418       15.2309869974       24.1076415499
  C         3.3967523416       13.6667529695       24.0226058542
  S         1.4679359088        9.4981920649       22.5088963852
  C         1.8812296678       10.3833104388       21.0915104231
  H         1.7889985930       12.5593232281       20.4190431304
  C         0.3820268542       10.6166375184       25.7252837819
  H         0.0419168693       14.2127003606       25.6858449966
  C        -0.0365253185       12.5092723628       26.8436377024
  H         3.4253517639       12.6305830972       23.6778794055
  H         3.3581247524       13.5744571382       25.1283198292
  C         4.7373936709       14.3327003714       23.7778122783
  C         2.3783155024        9.6591896791       19.8961816091
  C         0.1117795484       11.2033459884       26.9341216021
  H         0.2816130990        9.5484735094       25.5286008765
  C        -0.5261754555       12.8944271694       28.0650409732
  H         5.4824234342       13.6436796367       24.1735799836
  H         4.9835052079       15.1664359741       24.3403178811
  C         5.2149335750       14.4072029755       22.2513772589
  C         2.3142339633        8.2041952699       19.7461743614
  C         2.8980053788       10.4109919354       18.7968224544
  C        -0.3054697312       10.5111988422       28.2394140939
  C        -0.6115370474       11.8411699828       28.9047267939
  S        -1.0398340854       14.3841105887       28.6731221243
  H         6.2736571345       14.7961604484       22.1112754802
  H         4.5754218814       15.0021553262       21.6956180075
  C         5.1346435607       13.1227755560       21.4101684433
  N         1.8368169087        7.2382078755       20.6171193848
  C         2.5468099572        7.7441435472       18.4471449774
  C         3.0757289403        9.8741882420       17.5239999817
  H         2.9812897404       11.4919761513       18.9733463479
  C         0.8377102427        9.6405291512       28.8494712102
  C        -1.6062740631        9.6640353327       27.9511290531
  C        -1.0595731458       12.2352383021       30.1830931626
  C        -1.3162099664       13.5463737503       30.2395975273
  H         5.7208498549       12.3824924840       21.9517443223
  H         4.1961043209       12.6853058622       21.5100688403
  C         5.4347087633       13.3042680541       19.9698093739
  S         2.0537624288        5.7820264457       19.8233365948
  N         2.3573281853        6.3526198686       18.3319898832
  C         2.9184450647        8.4172881054       17.2860869773
  H         3.4259023383       10.5706833829       16.8029183987
  H         1.2980562930        9.1596305421       28.0728075021
  H         0.3382282052        8.9590960678       29.5437599651
  C         1.9605993320       10.4223702016       29.4440344713
  H        -1.4042340062        8.9852629079       27.1337770746
  H        -1.7710361501        8.8741503905       28.7052322094
  C        -2.9465747327       10.3962619204       27.6137448572
  H        -1.0001326184       11.4726421750       30.9618024216
  C        -1.6816334227       14.3419835347       31.4602817703
  H         4.9218765571       14.1825047565       19.7501652075
  H         5.1993963019       12.4975081955       19.3501343087
  C         6.9231596391       13.4343367406       19.6380220577
  C         3.1873260574        7.7450235282       16.0728049292
  H         2.3708207962       11.1481973867       28.6760007379
  H         1.6175666553       11.1074856977       30.2616093408
  C         3.0408367832        9.5545965241       29.9561001864
  H        -2.6728079003       11.0191182356       26.7950257121
  H        -3.3802389435       10.9487042941       28.4237096934
  C        -4.1092233326        9.4400930619       27.2842729791
  C        -1.7214824753       15.7791726533       31.6357570001
  C        -1.9350663056       13.6734130343       32.6681886850
  H         7.4676158921       14.1906882260       20.2111722317
  H         7.3355901119       12.4846303859       19.8763445517
  C         7.2465872101       13.8483705779       18.2221600427
  H         3.1425336523        6.6834822431       16.0830168257
  C         3.3549355406        8.1829931727       14.7851796590
  H         3.4825860601        8.9797857263       29.1942406271
  H         2.6909243267        8.7036633948       30.6183747913
  C         4.1219821448       10.2578934795       30.6990251403
  H        -4.0938191091        8.8957592725       26.3726100605
  H        -4.0290586167        8.7525874336       28.1177954642
  C        -5.4343732723       10.2424186270       27.3016707228
  N        -1.2831447896       16.5905025200       30.5877044777
  C        -1.9157319242       16.4220876049       32.8108689008
  C        -1.9796967079       14.2715724443       33.9280701524
  H        -1.8562081256       12.5727020766       32.6991037603
  H         7.7048957664       13.0158887578       17.8974982864
  H         6.3766029007       14.1188702308       17.6868402242
  H         7.9334038600       14.6263338505       18.1847357330
  S         3.7063232005        9.8088048254       14.3086027575
  C         3.5106131906        7.2286591162       13.7175848530
  H         4.3366057579       11.1689186736       30.2043428337
  H         3.9560346549       10.4025462734       31.7333842205
  C         5.4413154106        9.6132864301       30.5393245938
  H        -5.3446187920       11.3161371115       27.3956975573
  H        -5.9068411519       10.0426873482       28.2338614634
  C        -6.5073707263        9.8338678373       26.2780493189
  S        -1.4630713895       18.1107213438       31.1361525580
  N        -1.9061995110       17.8283918622       32.6833497725
  C        -2.0983985886       15.7828714788       34.0301953801
  H        -2.1237781463       13.6403697743       34.8141396742
  C         4.0774923993        9.1440606538       12.6967991901
  N         3.8612033072        7.8200879078       12.6802406127
  O         3.5540067988        5.9977141538       13.9336207740
  H         6.2426543986       10.3568802191       30.5230128258
  H         5.4978316912        9.2786361703       29.4875650027
  C         5.6704790594        8.5529067314       31.5919025361
  H        -5.9156679311        9.6323482520       25.3759123110
  H        -7.0481397150        8.9243059414       26.6818051483
  C        -7.4298586783       11.0524590567       25.8945462457
  C        -2.3748691509       16.5583924959       35.2593595734
  S         4.4516171362       10.0137453191       11.2332716348
  C         3.9701028033        7.0749195879       11.3745774276
  H         6.5084228114        8.8891688241       32.2430091957
  H         4.7473385632        8.3160331325       32.2075592173
  C         6.2383862549        7.2891006905       30.8840536102
  H        -6.7875055579       11.9286416028       25.5609074714
  H        -7.9085810425       11.1483774204       26.8580721746
  C        -8.5409309851       10.7878928681       24.9471481634
  H        -2.2646653618       17.6087333914       35.1176995005
  C        -2.9756591873       16.2624791273       36.4669613157
  H         4.9543492940        7.1473200845       10.9219038741
  H         3.9156943909        6.0145156353       11.6016571393
  C         2.7113804073        7.2502769374       10.4925869454
  H         7.0861989835        7.4926258057       30.1847830751
  H         5.4494553452        6.8291548528       30.2928171480
  C         6.8482297337        6.3405309260       31.7928416888
  H        -8.7320296680       11.8145967579       24.5923910094
  H        -8.1647338805       10.1733264002       24.1521151370
  C        -9.8061633978       10.2084228208       25.7171273549
  S        -3.3921244064       14.6806118178       37.0481863941
  C        -3.2506144822       17.3815990404       37.4079296704
  H         2.6708703320        8.1353104556        9.9280590203
  H         2.5691543039        6.3867179838        9.8501206269
  H         1.7412737696        7.3088530950       11.0238821513
  H         7.2934271382        5.5980511595       31.0844175595
  H         6.1172433919        5.8992288548       32.5457729859
  H         7.6163103007        6.9330871396       32.2963517030
  H        -9.4244760131        9.5082910531       26.4797991558
  H       -10.3414769739        9.7289473390       24.9004237132
  H       -10.6708098030       10.9018178658       25.9532288280
  C        -3.7992223581       15.4760910212       38.5502095892
  N        -3.7772083984       16.8619570280       38.4900050901
  O        -2.8138984286       18.5484136632       37.2479420982
  S        -4.5826100151       14.7865120384       39.9649703147
  C        -3.8074866458       17.6717988877       39.6655437953
  H        -3.9461853252       18.6626968530       39.4736000197
  H        -4.6432205826       17.4402610180       40.2513538858
  C        -2.5948877671       17.6342571795       40.5035798522
  H        -2.6503192582       18.4323176198       41.2305487686
  H        -2.6677284246       16.6425852278       41.0649307589
  H        -1.6563379774       17.7558159198       39.8427245270
