352
i=
  H         4.9183877324        2.2551093899       12.6129999748
  C         4.0238647589        2.7645307146       13.0052490192
  H         4.2773488240        3.7962727398       13.0001646440
  C         2.9951550644        2.6790320443       11.8860822435
  C         3.5010535171        2.1893433666       14.4186847047
  C         3.7784628038        2.7798207328       10.5475723959
  H         2.2309121992        3.4397400372       11.8744229401
  H         2.6215684006        1.6666758895       12.0445039604
  H         2.8909999103        1.3615807519       14.3105950370
  H         3.0103971912        3.0739989486       14.8953905727
  H         4.3227935672        1.7991502016       15.0036740624
  C         4.4712070955        1.5161483822        9.9496403889
  H         2.9665423092        3.0313452181        9.8412304367
  H         4.4497705081        3.6109999579       10.4754770924
  C         5.1878453461        1.8230420031        8.6197394033
  H         3.6518001199        0.8011902018        9.8161516715
  H         5.2030563547        1.0315217761       10.5574167108
  C         6.4444451969        2.6946821880        8.5791087513
  H         4.5190115317        2.1430306205        7.7823378887
  H         5.6248998300        0.8543414453        8.2570792242
  C         7.6623719196        1.8090927859        9.0393185936
  H         6.6264732711        3.0431880051        7.5968307782
  H         6.2162320419        3.5279609203        9.2355493760
  C         9.0121240982        2.6113418910        9.2546025178
  H         7.9640483552        1.0747290809        8.3840069065
  H         7.4097680115        1.2061644390        9.8575748870
  C         8.6742537979        3.8781097901        9.9898287667
  C         9.4642400956        3.3574095369        8.1244758514
  C        10.1080786741        1.8465743405       10.0605686319
  C         8.9044140896        5.0395422546        9.2366180987
  C         8.1594619523        4.1918961393       11.2542711083
  C         9.5188987041        4.6926074337        8.0834214807
  C        10.0251170087        2.7529875773        6.9727727992
  H         9.6177787498        1.5397865443       10.9870409403
  H        10.3888411963        0.8825930456        9.5952983661
  C        11.3983682892        2.6801649848       10.3259768235
  S         8.4305849607        6.4652527953        9.9585128122
  C         8.0157090389        5.5339597941       11.3661501924
  H         7.9691397042        3.3760153896       11.9237093050
  C         9.9651458516        5.3568376837        6.9343007663
  H         9.9459304130        1.6588683100        6.8142200194
  C        10.4833254374        3.3615132961        5.8738142963
  H        11.1492699050        3.5866853498       10.8032417046
  H        11.8645179111        2.9256422317        9.3714756616
  C        12.4534261324        1.9044457643       11.0738275195
  C         7.6613958414        6.2065812090       12.6666035826
  C        10.4864599532        4.7104639236        5.8167621721
  H         9.7756711491        6.4347775872        6.9466706177
  C        10.9227106902        2.9559043294        4.6329154421
  H        13.3683535481        2.4407564626       10.9095550055
  H        12.6213947766        0.9435497111       10.6112403163
  C        12.0920071701        1.7869650680       12.5192608337
  C         7.7985130714        7.5884761815       12.9213068180
  C         7.1004183044        5.3670766396       13.7506789596
  C        10.8947551569        5.4159759768        4.5104891538
  C        11.1615649051        4.0403412918        3.8193630850
  S        11.1191083446        1.4137364401        3.8290863427
  H        11.5698388019        2.7402582229       12.8382873317
  H        11.4578293996        0.9430651324       12.6118106808
  C        13.3490734313        1.6264084404       13.4422515009
  N         8.1411183519        8.5787179665       12.0263747953
  C         7.4300566206        8.1183798829       14.1538513172
  C         6.8608201025        5.9021002565       15.0476902213
  H         7.0431875323        4.2996425560       13.6818861679
  C        12.1652990186        6.2310330961        4.7345728358
  C         9.7205334788        6.0979965085        3.7594338348
  C        11.4523800285        3.6044303202        2.4710118802
  C        11.4176402571        2.2518597132        2.3187756627
  H        13.7802774609        2.5833224333       13.5004073408
  H        14.0818603309        0.9945521941       12.9455907796
  C        13.0504665630        0.9997744060       14.8183385036
  S         7.9002427197       10.0426142704       12.7021055099
  N         7.3764457660        9.5125807369       14.2177092608
  C         7.0529976969        7.3290859855       15.2986933606
  H         6.5076225611        5.1108920211       15.7046026802
  H        12.0051007562        6.8976518362        5.5832030473
  H        12.4028389928        6.8989447592        3.9249567209
  C        13.4817609968        5.4783556654        5.0233223209
  H         9.5378972351        7.0562186306        4.1925472377
  H        10.0925813372        6.4261027368        2.7833481028
  C         8.4096911566        5.3276551503        3.3918042750
  H        11.6637143545        4.2577587047        1.6247302633
  C        11.7232815992        1.4744680812        1.0416576052
  H        12.2869608724        0.2589568640       14.6003830949
  H        13.8271946827        0.3645200745       15.2815048092
  C        12.4716224215        1.9498146263       15.9541525736
  C         6.9501490866        7.9611056458       16.5807175542
  H        13.0759561500        4.9384664084        5.9236872826
  H        13.7088579886        4.8216974077        4.2170543828
  C        14.6866547361        6.3995366418        5.3341058229
  H         7.8475488159        4.8622037126        4.2607298287
  H         8.5982711389        4.6370028103        2.5911968521
  C         7.4171318243        6.3226095020        2.7699312182
  C        11.8035246704        0.1111749114        0.9519652211
  C        11.8631310015        2.2714842725       -0.1618530765
  H        11.4607924177        2.2934874834       15.7077168120
  H        13.1679842822        2.7928044014       16.1085180798
  C        12.5060209088        1.2998891183       17.3052856658
  H         6.7953883448        9.0528370475       16.5065211646
  C         6.6309828323        7.4855160682       17.8110286438
  H        14.4406398334        7.1815354055        5.9939449829
  H        14.8474371600        6.9668539855        4.4180279441
  C        15.9710414892        5.7104479662        5.5844972507
  H         7.1748810417        7.0689869280        3.4880962015
  H         7.9827266938        6.8143651859        1.9839495809
  C         6.1078830973        5.7863103930        2.1795486491
  N        11.3871810959       -0.8350606026        1.8844301551
  C        12.1005491559       -0.4993693821       -0.2681166294
  C        12.2910828832        1.6999529755       -1.3385484168
  H        11.5086887061        3.2765795954       -0.1170301406
  H        11.7216934515        0.5621524963       17.3761581962
  H        12.3087750187        2.0447895511       18.1577242543
  H        13.4528659016        0.7284467561       17.4081061203
  S         6.3624204067        5.8743180104       18.2295888693
  C         6.4474854181        8.5058432558       18.8546298779
  H        16.2894246381        4.9405678558        4.8166516174
  H        16.6507641813        6.5831857347        5.4702356690
  C        16.1086798738        5.0797840242        6.9597473448
  H         5.6573727799        5.2317815696        3.0168047858
  H         6.3574230160        4.9329142120        1.5725062262
  C         5.1414588097        6.8019889865        1.6664846598
  S        11.4273842371       -2.3120113014        1.1806617659
  N        11.9943740885       -1.8573947363       -0.2900450855
  C        12.4254163855        0.2098282144       -1.4772924387
  H        12.5055764563        2.3221426681       -2.2172455300
  C         5.9676753916        6.5503585649       19.7871339211
  N         6.0226975796        7.8963173514       19.9576695259
  O         6.6004545193        9.7414770176       18.6594342034
  H        16.0245614447        5.9382641915        7.6410991918
  H        15.2299606958        4.3679069811        7.1795094324
  C        17.4551166288        4.4306042931        7.1913036588
  H         5.5597374029        7.3834184137        0.8884876748
  H         4.2567454379        6.3260227949        1.2246083370
  C         4.6316032987        7.6718461449        2.7862696363
  C        12.6951795764       -0.5067381906       -2.6929226073
  S         5.2454603321        5.6976874696       21.1873372082
  C         5.9170506912        8.6665926973       21.2132427610
  H        17.3535825800        3.8325062262        8.0642203827
  H        17.6073637768        3.7888722800        6.3424312164
  C        18.6340785979        5.4610054748        7.3329985434
  H         5.4888217164        8.2971225017        3.0392591641
  H         4.4539921478        7.0948698659        3.6539155747
  C         3.5608329550        8.6144692757        2.3238772557
  H        12.5248525568       -1.6205763130       -2.7356005095
  C        13.1128320491       -0.1274193417       -3.9517780232
  H         5.3053870068        8.2348607408       22.0212668040
  H         5.3474525584        9.5811415486       21.0244217470
  C         7.3385318430        9.0417926420       21.7757718794
  H        19.2061216202        5.2652686734        8.2889762206
  H        18.1889370380        6.4279914101        7.5756066693
  C        19.4221157737        5.5255105059        6.0322102864
  H         3.1502657368        8.1486686982        1.4361256589
  H         2.7282392774        8.7167493403        2.9851706931
  C         4.0408151562       10.0236620606        1.8806228938
  S        13.5395054732        1.4627774045       -4.4742256337
  C        13.2506339747       -1.1858194149       -5.0181897510
  H         7.3242704608        9.8660955881       22.5230556872
  H         7.9839197232        9.2843276709       20.9413778277
  H         7.8298484979        8.1843229613       22.3151398419
  H        20.4654648131        5.3372819651        6.2558735506
  H        19.1578304693        4.9340659610        5.1352615510
  H        19.4477262210        6.5301369504        5.7078263105
  H         4.6605184539       10.4650333915        2.7035410247
  H         4.6172194967        9.9823252066        0.9719293445
  H         3.1902042252       10.6928960658        1.7105915301
  C        14.2238804721        0.6053274402       -5.9463485185
  N        13.9370212527       -0.6986683953       -6.0615241299
  O        12.7579283806       -2.3303211812       -4.8924208809
  S        15.0095701658        1.3425650801       -7.3880576651
  C        14.1315672225       -1.5284265437       -7.2144655427
  H        14.4649393031       -2.5198765328       -6.8793493457
  H        14.9676940656       -1.1865140012       -7.8133918749
  C        12.9930637031       -1.5203817784       -8.1809600160
  H        12.6942148022       -0.4673148714       -8.3160737564
  H        12.2056759390       -2.0957422498       -7.8379976000
  H        13.1896365117       -1.8839234316       -9.1918982853
  H        -3.2481656658       14.9784988862       17.0823208829
  C        -2.5210800518       14.1617067674       17.0324174774
  H        -3.0736914901       13.2902539901       17.4482109730
  C        -1.2568271274       14.4815012073       17.8429383032
  C        -2.3002022533       13.8300766511       15.5876852502
  C        -1.4571513203       14.3658241693       19.3128494108
  H        -0.3246416206       14.0450665381       17.4929451226
  H        -1.0870711707       15.5039573259       17.8436682827
  H        -3.0398622462       13.1147261951       15.3022884298
  H        -2.3855131504       14.6205395248       14.7989575498
  H        -1.3147046488       13.4130620106       15.3403511712
  C        -1.6458268119       12.9852847502       19.9408291095
  H        -2.3989527059       14.9369491036       19.5762031637
  H        -0.7097831789       14.9699667676       19.8299660118
  C        -2.2084529697       13.0997853084       21.2914787945
  H        -2.3928188028       12.4553722457       19.3964261133
  H        -0.6859829791       12.3604729477       19.9779799992
  C        -1.2223349837       12.6763708690       22.4037849494
  H        -3.0209629870       12.3806584904       21.4685358974
  H        -2.5653280080       14.0880939483       21.6225966940
  C         0.0103525703       13.5832967360       22.5274676173
  H        -1.7720901346       12.6455524919       23.3663857314
  H        -0.8381078003       11.6362225626       22.2527307668
  C         1.1381764286       12.9556344027       23.3763356694
  H         0.5113336259       13.7883273708       21.5472345635
  H        -0.3338487182       14.4896131554       23.0181003233
  C         1.6172775835       11.6650101460       22.7512687820
  C         0.6936305470       12.2753641788       24.5695838732
  C         2.4317634795       13.9053775554       23.4001729089
  C         1.2616061654       10.5321504318       23.5281273894
  C         2.1913365834       11.2786120373       21.5536602834
  C         0.7016831270       10.9128416562       24.7300868790
  C         0.2479720889       12.9732722180       25.7072278709
  H         2.7718179493       14.1476590636       22.4260238089
  H         2.0955320204       14.7451359882       23.8963439211
  C         3.7072079687       13.3761469794       24.1197953733
  S         1.6741289785        9.0703210166       22.8374816765
  C         2.1295627567        9.9268288999       21.3948944880
  H         2.4425046478       12.1136170208       20.9071868809
  C         0.2246588065       10.3484540247       25.8930607794
  H         0.2966999754       14.0947962725       25.7261119431
  C        -0.1656680282       12.3952495776       26.8817325390
  H         3.9132528355       12.3286227378       23.9399687339
  H         3.4594374102       13.3639740405       25.1857953419
  C         5.0457784143       14.0991516702       23.9329709882
  C         2.5011868699        9.2182569996       20.1290231844
  C        -0.1567860739       11.0462542250       27.0532518465
  H         0.2755683147        9.3031166441       25.8983007668
  C        -0.6329453430       12.9182638034       28.0860959995
  H         5.8010328917       13.7616857758       24.6911561253
  H         4.7671536550       15.1008740140       24.2672388543
  C         5.6032697558       14.1381004690       22.4729670926
  C         2.4970253420        7.8321397240       19.8248819591
  C         3.0379358953       10.0611169277       18.9535630400
  C        -0.6953865650       10.4584293928       28.3369324703
  C        -0.8973002189       11.7978538277       28.9187244719
  S        -0.8372993275       14.3929087983       28.9039439727
  H         6.2404137878       14.9933110213       22.3017077282
  H         4.8215135766       14.2273641049       21.6848990246
  C         6.2745099470       12.7344401102       22.2255959122
  N         2.0826972987        6.9374787462       20.7617288563
  C         2.8574437072        7.2518010569       18.6171840184
  C         3.4347847308        9.4371274159       17.7128405672
  H         3.1283610992       11.0971768180       18.9754945882
  C         0.3227957941        9.6488064208       29.2080784990
  C        -1.9948780632        9.6033660735       28.0369726194
  C        -1.2655710768       12.1461932812       30.2153388552
  C        -1.2870583831       13.5308086150       30.3646178829
  H         7.3239894874       12.7013764575       22.6325768456
  H         5.6529870234       11.9819320677       22.6676971756
  C         6.5567841407       12.2969391087       20.7658727012
  S         2.1236199658        5.4314466679       20.0891332419
  N         2.7741102166        5.8796252219       18.6751879027
  C         3.2684541426        7.9758171679       17.4747821291
  H         3.6770884848       10.1262713959       16.8759629096
  H         0.6670630549        8.6754275334       28.7100798773
  H        -0.3127249889        9.3388439677       30.0584287271
  C         1.4462150590       10.5227890446       29.7880594955
  H        -1.7047060368        8.7764940498       27.4039337197
  H        -2.3461244136        9.1397561908       28.9831035530
  C        -3.1357950562       10.4294072636       27.4969104898
  H        -1.3118265995       11.4011048984       30.9698409204
  C        -1.4298104602       14.3210300634       31.6562964821
  H         5.7405849746       11.8596694851       20.3286511417
  H         7.2812804584       11.4941877409       20.6818194237
  C         7.0299735927       13.4723511027       19.8323685479
  C         3.5402525880        7.3230935310       16.2883713355
  H         1.6623759961       11.2855727278       29.1116453482
  H         1.1170147892       11.0540531878       30.6714421355
  C         2.5759446538        9.5118846490       30.1326273446
  H        -2.8882463725       10.9746716529       26.6205095073
  H        -3.4867479991       11.2437934593       28.1551966082
  C        -4.4267184158        9.5924372529       27.3643222505
  C        -1.5198448721       15.7305804483       31.8431482097
  C        -1.5735936097       13.4808238664       32.9091344791
  H         6.2226739092       14.1725536713       19.7089931538
  H         7.8660323019       13.9198198991       20.4067264594
  C         7.4057556733       13.0713350271       18.4837349495
  H         3.4610828640        6.2851064942       16.2673829673
  C         3.7627506917        7.8569689840       15.0421592397
  H         2.8103863537        8.9726224444       29.1937898390
  H         2.1769266436        8.7380944740       30.8567501926
  C         3.9265233818       10.1594113278       30.4278351983
  H        -4.1274326587        8.8972492732       26.5416175961
  H        -4.5517222178        9.0772749640       28.3145912548
  C        -5.6889799904       10.4349622506       27.1148247920
  N        -1.2736452335       16.7057458605       30.8656734898
  C        -1.8349651842       16.2370977254       33.0759594435
  C        -1.9796807106       14.0008842604       34.1314159067
  H        -1.3805271573       12.4693974156       32.9980820932
  H         7.9015134584       13.8555026102       17.8960818779
  H         8.1874317018       12.3193674231       18.4936488586
  H         6.4706574124       12.7651606661       17.9751687428
  S         4.1069867119        9.5214162626       14.4804315640
  C         3.6671025516        6.8571375697       13.9539026929
  H         4.1168748395       11.0243769620       29.7397634315
  H         3.9057219991       10.3732564926       31.4766261336
  C         5.0868615824        9.1112753961       30.1640457736
  H        -5.5087617787       11.2470572950       26.4312349904
  H        -5.9542380691       10.8219836727       28.0155240790
  C        -6.9233623012        9.7027418990       26.4337402694
  S        -1.4391343184       18.1841924085       31.5637779325
  N        -1.9451918795       17.6486674413       32.9758676404
  C        -2.1832791602       15.4878273571       34.2079465535
  H        -2.3081720687       13.2634494444       34.8814134933
  C         4.2702960124        8.7713713038       12.8763369801
  N         4.0354150014        7.4314021608       12.8284994640
  O         3.3376905057        5.6674235823       14.0485172866
  H         6.0764478659        9.6293210080       30.1549186059
  H         5.0158706349        8.5378563450       29.2530832374
  C         5.1721046331        8.0226070719       31.2563438469
  H        -6.5033665752        8.8990573517       25.8247524484
  H        -7.5078154714        9.1539007502       27.2114580999
  C        -7.7103773702       10.6297409210       25.4607239163
  C        -2.5671500604       16.2443032137       35.3667052075
  S         4.9175525533        9.6005030700       11.4512956676
  C         4.1242892244        6.6199974678       11.5749496121
  H         5.6934250409        8.5612418914       32.0697342846
  H         4.1421909620        7.8126794544       31.6398648237
  C         5.8458054374        6.7405831290       30.7178727788
  H        -7.1765739922       10.9495352385       24.5671774626
  H        -8.0805288718       11.4700177525       26.0084482745
  C        -8.8282383147        9.7912969960       24.8409036506
  H        -2.6085727380       17.3131489090       35.1780718828
  C        -3.1936647946       15.9774776899       36.5672388031
  H         4.9019236130        7.0112999591       10.8990518438
  H         4.3815410382        5.6179833653       11.7246709856
  C         2.7165859931        6.7693280875       10.8857854841
  H         6.8905059822        6.7318005129       30.4025878246
  H         5.2245281514        6.5154579431       29.8440548646
  C         5.6921768362        5.6118348124       31.8493843229
  H        -9.2051821714       10.3394876102       23.9742139973
  H        -8.4432981130        8.8973760479       24.4326941862
  C        -9.9018714348        9.5170698247       25.8706502091
  S        -3.8391889249       14.4101454138       37.1029893900
  C        -3.1535248174       17.0325779722       37.5963622469
  H         2.7936132061        6.4059046598        9.8367828184
  H         1.9553778309        6.1942535287       11.3840480398
  H         2.3454717420        7.7331076890       10.9143529103
  H         6.4242873021        4.8326015757       31.7801210983
  H         4.7306549476        5.0428550929       31.8379609224
  H         5.9426610264        6.0731373182       32.8282536925
  H        -9.4615880594        8.9881020309       26.7075957476
  H       -10.7890598799        9.0162180214       25.4657071406
  H       -10.2077893137       10.4858839764       26.3230958612
  C        -4.0556498376       15.2350125716       38.6442658709
  N        -3.7474914791       16.5973426755       38.7088787196
  O        -2.7815328126       18.1628742607       37.3365784566
  S        -5.1723457605       14.5459068609       39.9540628085
  C        -3.7345880703       17.4113890246       39.8924743880
  H        -4.0096410067       18.4157005504       39.5301640510
  H        -4.5657340097       17.1122975062       40.4997047198
  C        -2.3933292282       17.2665499011       40.6211490076
  H        -2.2713774808       16.2411308581       41.0256353707
  H        -1.5017123946       17.4679258910       39.9995662928
  H        -2.2557755512       17.9878758062       41.4239841100
