352
i=
  H         4.3750000094        1.4276731231       12.0011786973
  C         3.9716173086        2.5104655389       12.1978670638
  H         4.9080177622        3.0702660098       12.0793760598
  C         3.0524029157        2.8809578494       11.0548924602
  C         3.4749762571        2.4738657043       13.6552809381
  C         3.8223705443        3.3155304301        9.8168526863
  H         2.5427865675        3.7420247780       11.4683224020
  H         2.3075832548        2.1214425680       10.8828674674
  H         2.7447064600        1.6592178880       13.8954452945
  H         3.0997182040        3.4734907406       13.9438546333
  H         4.4093519999        2.3623900493       14.3026486506
  C         4.6298913532        2.1414178357        9.2202121897
  H         3.1495011246        3.6940312095        8.9869327889
  H         4.5476246671        4.1145885924       10.1856073165
  C         5.4950579742        2.3330322140        8.0502522126
  H         3.9505973202        1.3238755269        8.9311313194
  H         5.2832386592        1.6327526090        9.9688499916
  C         6.7741499899        3.1092548573        8.4372738799
  H         5.0052297240        2.8223321337        7.2345990653
  H         5.6574512205        1.3744817614        7.5002975164
  C         7.9763834772        2.3465224434        9.0294505127
  H         7.1537824855        3.7506948061        7.6215768558
  H         6.5060450463        3.9724430899        9.0925579651
  C         9.1910742411        3.2727535095        9.2834607506
  H         8.2361004152        1.6348925161        8.3301724457
  H         7.7290668456        1.9151980227        9.9598042835
  C         8.8129570613        4.5464940820        9.8407789422
  C         9.7504808320        3.9309043259        8.0759843278
  C        10.3423352812        2.5047171238       10.0629821304
  C         9.0741046030        5.6957639671        9.1069438665
  C         8.1097937269        4.9346274192       11.0320993638
  C         9.6610842895        5.2973364141        7.9270583296
  C        10.2526187371        3.3179441480        6.9774801387
  H         9.9667848150        1.9576206756       11.0135137730
  H        10.6056629739        1.5896796590        9.5061369505
  C        11.6095323312        3.2753396324       10.3372235533
  S         8.5516516840        7.1692365347        9.8302960210
  C         8.0961093282        6.2582793790       11.2350741563
  H         7.8975915586        4.1196198299       11.7709207519
  C        10.1483077297        5.8676763912        6.7835257328
  H        10.4005130753        2.2480409530        6.9978845775
  C        10.7070386307        3.8640524724        5.8090470986
  H        11.2050717577        4.2154949605       10.7264682808
  H        12.0312196384        3.5134066550        9.4432567128
  C        12.5247563759        2.7108329147       11.4106097988
  C         7.7545671695        6.9483775876       12.5673783320
  C        10.6992138366        5.1961454515        5.6856443449
  H        10.0280895238        6.9269947726        6.6685430901
  C        11.0828949840        3.4792245275        4.5455174108
  H        13.6180573796        2.9482941943       11.2157722185
  H        12.5083254150        1.6631444487       11.2334364872
  C        12.1417623622        3.1683376908       12.8121491373
  C         7.8026609322        8.3387421932       12.9024740048
  C         7.1276614468        6.1197148319       13.6394704170
  C        11.2542651198        5.9323525462        4.5024469893
  C        11.5250515022        4.5439975986        3.7793563781
  S        11.1087889005        1.9152693319        3.7775257737
  H        12.6747367702        4.1593645663       12.9939117763
  H        11.0629445250        3.2789968481       12.8162110136
  C        12.5326998595        2.2479486496       13.9397230439
  N         8.1725912359        9.2858458454       11.9371033401
  C         7.5904510477        8.9087182591       14.1216437037
  C         6.8468784051        6.6635466286       14.9136111587
  H         7.0342909986        5.0510782751       13.4709720757
  C        12.5194070085        6.8387880774        4.7912454257
  C        10.1196862059        6.7555383567        3.7762896351
  C        12.0632652802        4.0765330195        2.5537264323
  C        11.8147939900        2.7472030423        2.3434586212
  H        13.5829955863        2.1940613039       13.9411867150
  H        12.0020395962        1.2727465046       13.6947268209
  C        12.0879260175        2.6834704845       15.2423191658
  S         8.0878267093       10.7721625098       12.5967107204
  N         7.7101018373       10.3219064799       14.1046556969
  C         7.1210926280        8.1189855890       15.2491771532
  H         6.4538956056        6.1182993484       15.7785339701
  H        12.1989642901        7.5871347581        5.4723445866
  H        12.7311025403        7.3075779608        3.8542218411
  C        13.6168365636        6.0346885705        5.4479227312
  H         9.9156530537        7.4804876935        4.5062813714
  H        10.5658415828        7.2518003625        2.9120411096
  C         8.8803706004        5.9453758222        3.3158546848
  H        12.4498692817        4.8084065226        1.9356410492
  C        12.1617768134        2.0270683387        1.1211161980
  H        12.0409955489        3.7718234173       15.2939452890
  H        11.0874077719        2.3315712277       15.3640934472
  C        12.9138421062        2.1681157485       16.3957057978
  C         6.9214739629        8.7278380463       16.5854649010
  H        13.3593699262        5.9330190183        6.5051381797
  H        13.6750918615        5.0659439872        5.0641270504
  C        14.9364124920        6.6962563021        5.4140711219
  H         8.5508819822        5.2402152713        4.1023981560
  H         9.0954858164        5.2819470610        2.5323731702
  C         7.7117797494        6.8278449413        2.8975177934
  C        12.1277350283        0.6118984677        0.9413105833
  C        12.5292149224        2.7382415818       -0.1576886466
  H        13.9614148937        2.3783689420       16.1812820358
  H        12.7513094620        1.0927315378       16.5081281015
  C        12.5745092160        2.7260963278       17.7857813336
  H         7.0924811834        9.7530803767       16.5176763384
  C         6.6783171736        8.1819788235       17.8282334839
  H        14.7907055589        7.7921633772        5.4415573217
  H        15.5315353933        6.5729554262        4.4701838307
  C        15.8157172312        6.0998253117        6.4643176751
  H         7.2088548987        7.3515975012        3.7572722677
  H         8.0589152945        7.5803107153        2.2226347883
  C         6.7514578965        5.7922662610        2.1091103077
  N        11.7677319551       -0.3065961078        1.9404743531
  C        12.4310580880       -0.0263679753       -0.2560591866
  C        12.7794124466        2.1601421448       -1.3778939903
  H        12.6074211239        3.8325502510       -0.0638689229
  H        12.4222851776        3.8327702892       17.6925778030
  H        13.3772438055        2.5225395663       18.4501513673
  H        11.6725717893        2.3510990416       18.2582470028
  S         6.3090795533        6.5674886769       18.2807572671
  C         6.5160570684        9.2092403313       18.8854713871
  H        15.5782580590        6.4606140706        7.4838702997
  H        15.7048136831        5.0290495701        6.4013996384
  C        17.3041591093        6.6127159222        6.2965514511
  H         6.5256809298        4.9472533988        2.6799119696
  H         7.2171028641        5.5435706026        1.1558818740
  C         5.5056796285        6.6637445772        1.8219922508
  S        11.8403466727       -1.8051170948        1.3209016024
  N        12.4028674715       -1.3919407871       -0.2041709910
  C        12.7581836989        0.6916689140       -1.4685823020
  H        13.0673415833        2.7997224089       -2.1988510579
  C         6.0805652373        7.1777376730       19.9318790888
  N         6.2078192843        8.5784589999       20.0496273032
  O         6.5373543329       10.3781682009       18.7416082143
  H        17.5456893006        6.6010975150        5.2459209196
  H        17.3132149518        7.7330929105        6.5453400443
  C        18.2297334998        5.6779963024        7.1300540358
  H         4.7001240798        6.0751977887        1.4155952017
  H         5.1785040336        7.0363394118        2.8159009210
  C         5.6013788913        7.8297315026        0.8310778709
  C        13.1154779306       -0.0661278279       -2.6661606214
  S         5.6982470425        6.4216330974       21.4386465832
  C         6.2447953763        9.3553323882       21.2465141977
  H        17.6861686398        5.1919793234        7.9456521544
  H        18.7207169312        4.9041306560        6.5381085345
  C        19.4357984004        6.4874770247        7.6668919773
  H         5.5752409531        7.4306006831       -0.1293244785
  H         6.5012058722        8.3794350075        0.9515610260
  C         4.4322553013        8.7252476436        1.0446671316
  H        12.8308364189       -1.0933567920       -2.6013221294
  C        13.5966367326        0.2661351658       -3.9073254043
  H         5.6822772247        8.8826974782       22.0274305476
  H         5.7939054427       10.3222936201       21.1299686667
  C         7.6763659530        9.5335462685       21.8020746771
  H        19.8554769009        5.9337254894        8.4493853145
  H        18.9648118773        7.3223621400        8.0952027600
  C        20.4247884939        6.7919579157        6.5781212836
  H         3.9810034801        8.9264276466        0.1026059465
  H         3.7460023742        8.1500820681        1.5208604718
  C         4.6807898174       10.0205283593        1.7259694346
  S        14.1932996826        1.7650597072       -4.2990535537
  C        13.6670874266       -0.7718179718       -4.9619335236
  H         7.8002795713       10.3388100678       22.4821547363
  H         8.4307670556        9.5398745943       21.0557503013
  H         7.8229623848        8.7880706942       22.6027141774
  H        21.3507176521        6.9372483366        7.0885875771
  H        20.5851859991        5.9859097547        5.8930606078
  H        20.1804319789        7.6912207390        5.9861170614
  H         5.4812598587       10.6641217034        1.3591564533
  H         3.7355573367       10.6031989061        1.7175086436
  H         4.8548503541        9.8289561697        2.7945707313
  C        14.5057757183        1.1423312453       -5.8696126611
  N        14.1827404626       -0.1992063925       -6.0314919845
  O        13.2672075345       -1.9155245789       -4.8032905561
  S        14.9809230027        2.0923438668       -7.2671484189
  C        14.1886732049       -1.0777958332       -7.2493589775
  H        14.4833332127       -2.0617203736       -6.9589692143
  H        15.0550036026       -0.8328967305       -7.8881987431
  C        12.9046830702       -1.0295371830       -8.1792564696
  H        12.0242461098       -0.6700759088       -7.6078054977
  H        12.5629846134       -1.9281031359       -8.6471267918
  H        13.0119863760       -0.2916535307       -9.0021263538
  H        -3.8152146636       14.8743722315       16.2018224803
  C        -3.6856461985       13.8326772700       16.5999320938
  H        -4.6321897097       13.4790435328       16.9726176791
  C        -2.6297138625       14.0280268665       17.7017824661
  C        -3.0929974498       12.9047829122       15.4272571002
  C        -3.0723025796       13.2861117700       19.0048767063
  H        -1.6584229562       13.7653123391       17.2654633935
  H        -2.5197148186       15.0991489834       17.8607393253
  H        -2.3190915381       12.2813619939       15.8721890809
  H        -3.8682608153       12.2594182726       15.0430466866
  H        -2.7950886909       13.3218981569       14.3985951900
  C        -1.9534021841       13.3139720200       20.0400621139
  H        -3.3770385157       12.2793127957       18.8238152297
  H        -4.0028128933       13.7404831949       19.3053448466
  C        -2.3752866723       13.2952193230       21.5054021067
  H        -1.3237007136       12.5068111841       19.7491756260
  H        -1.3354931975       14.2902374751       19.9250537706
  C        -1.3102437505       12.6415828825       22.4105827648
  H        -3.2541968522       12.7175816418       21.6370208484
  H        -2.5308967808       14.3168091728       21.7784294427
  C        -0.0953347049       13.5646493010       22.6701028453
  H        -1.7092980869       12.3217442226       23.3419026867
  H        -1.0324891240       11.6920849688       21.9267697995
  C         1.0386985150       12.9116106571       23.5170080654
  H         0.2528701805       14.0447241754       21.7476471383
  H        -0.6046795776       14.2800128925       23.2604621265
  C         1.3804593301       11.6465906329       22.8053493379
  C         0.6266440989       12.1767634789       24.7302488671
  C         2.2535065270       13.9040793052       23.6391816116
  C         1.3295436370       10.4916645243       23.5886392950
  C         1.9241076538       11.2837928769       21.5351853434
  C         0.7484893342       10.8692199949       24.8019643191
  C         0.2667973849       12.7789564817       25.8879506951
  H         2.5448849166       14.2342910152       22.6576940285
  H         1.9819199128       14.7464964751       24.3189367183
  C         3.4777961257       13.1613436371       24.1600536172
  S         1.8503050350        9.0078364634       22.9011774801
  C         2.2613997892        9.9230743796       21.4806103975
  H         2.0233125927       11.9835036235       20.7057584960
  C         0.4952041739       10.2590386345       26.0040930898
  H         0.2968027526       13.8781415972       26.0594650886
  C         0.0514776408       12.1692955189       27.1033996639
  H         3.7289011832       12.3015836312       23.6159521900
  H         3.2563321878       12.8438584643       25.1533495737
  C         4.6996673095       14.0520455489       24.1616956803
  C         2.7073395226        9.2968110290       20.1656514643
  C         0.1407661668       10.8408079598       27.2370973611
  H         0.5670482558        9.1695514605       25.9293880090
  C        -0.3586984932       12.5614704065       28.4058203573
  H         5.5315084699       13.6619818602       24.7672787126
  H         4.5595168662       15.1002946431       24.5597429374
  C         5.1554063156       14.1792091129       22.6561785831
  C         2.8168941891        7.8446857433       19.9003854203
  C         3.0058848564       10.1475530915       19.0331078106
  C        -0.2140103490       10.1143293589       28.4771413232
  C        -0.5303307200       11.4797678944       29.2278122931
  S        -0.7703398979       14.0644059536       29.1536453057
  H         4.6227142961       15.0166127056       22.1489959920
  H         4.7793575516       13.2910751736       22.2472817487
  C         6.6300558834       14.3838258232       22.4498334307
  N         2.5836583964        6.7992098317       20.8387535959
  C         3.0024106751        7.3596338744       18.5894159075
  C         3.3998718393        9.6305140691       17.7994857544
  H         3.1217381200       11.2103645746       19.1435088781
  C         1.0230353133        9.3545782750       29.1203557631
  C        -1.4753735537        9.2748166300       28.3621679991
  C        -0.9218135214       11.8606565163       30.5450338929
  C        -1.0551479628       13.2114818930       30.6523904462
  H         6.8955855780       15.2981204910       22.0349351123
  H         7.1410045321       14.4755006352       23.4545764026
  C         7.1241341562       13.2843148861       21.5717130789
  S         2.7567250128        5.3629322511       20.1121240936
  N         3.0325911930        5.9402201737       18.6245794654
  C         3.3541315654        8.1969568651       17.4876470918
  H         3.5918089750       10.2905990644       16.9350833421
  H         1.4550262372        8.7323073354       28.3148882606
  H         0.7062706408        8.7360558483       29.9617574830
  C         2.1546666766       10.2704231061       29.6333844830
  H        -1.3448880891        8.3593448516       27.7396465197
  H        -1.5864662758        8.7568750554       29.3070127593
  C        -2.8193049413       10.0835033071       27.9483029691
  H        -1.0117637254       11.1128427402       31.3160911466
  C        -1.3410121325       14.0175301981       31.9110789586
  H         6.5518248245       12.4261231777       21.8318525988
  H         8.1826598399       13.1409544544       21.8307374654
  C         6.9989725027       13.5031607134       20.0698259494
  C         3.5530110312        7.6258450764       16.2153056363
  H         2.3750265549       11.0267104523       28.9338748241
  H         1.9164306750       10.7477619224       30.5676647242
  C         3.4600638009        9.5232504358       29.9835415661
  H        -2.7418073722       10.7334865624       27.1004976070
  H        -3.0964541630       10.7119585274       28.7874168174
  C        -4.0371329159        9.1613695812       27.8277140299
  C        -1.3707809273       15.4327036360       32.0683373884
  C        -1.6173126525       13.2607686560       33.1541394438
  H         7.4953448222       14.4197895870       19.7495516870
  H         7.5267554414       12.7014806550       19.5519743779
  C         5.5866392370       13.4614665742       19.4965808746
  H         3.5871390722        6.5157111321       16.2430331906
  C         3.8347181566        8.1073101275       14.9445817194
  H         4.0175867726        9.3408293109       29.0586302581
  H         3.2766884155        8.6335595347       30.5739249664
  C         4.4040494463       10.2939095849       30.9387360767
  H        -3.7537259605        8.3299733459       27.1383624373
  H        -4.1684691669        8.6656530263       28.7039004237
  C        -5.3165309352        9.8945967502       27.3406542746
  N        -1.0218803186       16.3788798722       31.1699584546
  C        -1.7313209490       16.0791441124       33.2670149271
  C        -1.9265558229       13.9299566962       34.3408704322
  H        -1.5116556097       12.1550418844       33.0537007163
  H         5.0161485188       12.5972157265       19.8282234814
  H         5.0833126454       14.3716180374       19.7151019351
  H         5.7264143764       13.3886842358       18.4220009617
  S         4.1637068236        9.7385129422       14.5507610416
  C         3.9125278187        7.1219997108       13.7848881878
  H         4.6434223995       11.2498345457       30.5868654995
  H         3.8980892494       10.2533294424       31.8825121927
  C         5.8084105605        9.7585751682       31.0768562767
  H        -5.3960350770       10.9123958280       27.6684692058
  H        -6.2355145156        9.3874484080       27.6746875562
  C        -5.2600713584        9.9917450191       25.7940522366
  S        -0.9666336059       17.8568211046       31.7602251369
  N        -1.6096726787       17.4628992291       33.1755680539
  C        -2.0142780885       15.4028650780       34.4655844664
  H        -2.2618642472       13.2247937736       35.1814213156
  C         4.4749561289        9.1305972260       12.8780192810
  N         4.3316668670        7.7929330189       12.7023760489
  O         3.8383945269        5.9037179909       13.9116350087
  H         6.3240099080       10.3683905589       31.7248915324
  H         6.2662467272        9.8391257731       30.0600808811
  C         5.8867294145        8.2827081079       31.5182960072
  H        -4.3658464359       10.5561965454       25.5462171031
  H        -5.0440051908        9.0620452200       25.2313956995
  C        -6.4001301058       10.8220876568       25.1713960668
  C        -2.4936876703       16.1059426366       35.5926219610
  S         4.9576512131       10.2115151304       11.5635648178
  C         4.4180816282        7.1082779257       11.4237834979
  H         6.6021156005        8.1183623184       32.3222380563
  H         4.9813708442        8.0657105075       32.0127628123
  C         6.0783675216        7.2585538006       30.4017861123
  H        -6.3060901764       11.1835598755       24.1896023399
  H        -6.5992562338       11.7628099102       25.7701795202
  C        -7.7012949711       10.0048766696       25.1522020791
  H        -2.4393992168       17.1504652464       35.5237851337
  C        -2.9576298175       15.6304739588       36.8189918290
  H         5.3279942301        7.5457447928       10.9645202064
  H         4.7390766384        6.1145828371       11.6817320156
  C         3.1711298738        7.3032144689       10.6070445772
  H         5.4554031289        7.4565264084       29.5514964779
  H         5.6761954794        6.3145555601       30.8093315538
  C         7.4944284234        6.9507820706       30.1069511319
  H        -8.2297229360       10.0190776488       24.1803896119
  H        -7.5185464261        8.9218672578       25.4490522099
  C        -8.7728587058       10.4337275622       26.1804265510
  S        -3.1663108401       13.9576692570       37.3881548569
  C        -3.0808110768       16.5512635606       37.9658471748
  H         3.2001233388        6.4898962366        9.8915741876
  H         2.2572713294        6.9232696854       11.0963619202
  H         3.0808209757        8.2458732859       10.1702786699
  H         7.5941005950        6.1347272746       29.4861000433
  H         7.9881695798        6.5982616054       31.0049196554
  H         8.1168014625        7.7332040977       29.7118561722
  H        -9.7999270382       10.2316203557       25.8009761483
  H        -8.6859762263       11.4726308350       26.2078598161
  H        -8.7240783282       10.0231261156       27.1535439801
  C        -3.7169031575       14.6065385359       38.9181257305
  N        -3.6161440514       15.9118032167       39.1049812085
  O        -2.6904926185       17.6939988677       37.8376540954
  S        -4.3293023267       13.6012605238       40.2729058578
  C        -3.8448742599       16.5558953146       40.3627281871
  H        -3.9657325780       17.5727573368       40.1516779342
  H        -4.6761668405       16.2529551274       40.9161765132
  C        -2.5856099179       16.3678090451       41.2324633118
  H        -1.8587529212       17.0214312612       40.8465556525
  H        -2.7992713879       16.5443862262       42.2628443384
  H        -2.2972084835       15.3385642903       41.0762959396
