352
i=
  H         5.0316261720        1.4244732399       12.7067594122
  C         4.3976753791        2.3411943030       12.8186665468
  H         4.9595657717        3.2413351076       12.8674160285
  C         3.3265387056        2.5860976838       11.7390112127
  C         3.7161759027        2.2622191053       14.1447814594
  C         3.9775361240        3.0491738257       10.4920379279
  H         2.6445328428        3.4423988530       12.0090857445
  H         2.7238920530        1.7120140650       11.5989429436
  H         4.4918038668        2.0945021725       14.9679937330
  H         2.9673861428        1.4262869094       14.1781530434
  H         3.2965762179        3.2439856891       14.2463133045
  C         4.7773533012        1.9166907706        9.8663425481
  H         3.1834274271        3.3965747877        9.8563275220
  H         4.7099689999        3.8355233133       10.6276888367
  C         5.5066903157        2.1393303703        8.5490706480
  H         4.0341353410        1.1189925524        9.6469053642
  H         5.4697935810        1.5174777811       10.6024844363
  C         6.6648163627        3.1052718867        8.5527405048
  H         4.7744692292        2.4220258671        7.8204490261
  H         5.7339841383        1.1990401800        8.0215196174
  C         7.8611799105        2.2892820574        9.1120569278
  H         6.8046375878        3.3497324010        7.5119408918
  H         6.4425746860        3.9214151454        9.1799364611
  C         9.2234544605        3.0519626289        9.3241013689
  H         8.0549857228        1.4566615974        8.4523990386
  H         7.4983683061        2.0103232004       10.1049845754
  C         8.8661748090        4.4022032500       10.1184662341
  C         9.6319591889        3.7473220830        8.1452551394
  C        10.3585192573        2.3979410946       10.1804622158
  C         9.1631864383        5.5016580902        9.3014132360
  C         8.3667598182        4.8203103154       11.3779123655
  C         9.5714857802        5.1158580286        8.0097535569
  C        10.0616221383        3.1142196523        6.9882724695
  H         9.8887659206        2.3908472312       11.1577673256
  H        10.4158988021        1.4219165002        9.7981649495
  C        11.6975675441        3.1453689328       10.2465942479
  S         8.9078426236        7.0016625419       10.1012177128
  C         8.2432040053        6.1907109183       11.5253195172
  H         7.9974324204        4.0792758176       12.0351444238
  C         9.9646433189        5.7356978454        6.8382230593
  H        10.1251100312        2.0779255516        6.8689886748
  C        10.3297002284        3.7215612041        5.7843603885
  H        11.4348530655        4.1294314621       10.5846454339
  H        12.1758769688        3.3129981186        9.2828863531
  C        12.7175153549        2.5719292244       11.2694924513
  C         7.6950878234        6.8266686288       12.7659213852
  C        10.3144542716        5.0515917549        5.6488883432
  H         9.8406393730        6.8011291503        6.7554996788
  C        10.7660425658        3.3291508927        4.5324050221
  H        13.7494388979        2.7972169666       11.0961878805
  H        12.6584647762        1.4574174302       11.2810129487
  C        12.4850881821        3.0026222031       12.7235153285
  C         7.7325471260        8.1997868674       13.0029560848
  C         7.2724051198        5.9534901249       13.9237775107
  C        10.7228513814        5.7121770838        4.3372754584
  C        11.0072159638        4.3739977519        3.7123590486
  S        11.1043562253        1.7721865905        3.8389523072
  H        13.0296279651        3.9274720577       12.9574235233
  H        11.4077850149        3.3564460113       12.9344946944
  C        12.9403715899        2.0113048620       13.7158269249
  N         8.0464299995        9.2276068824       12.1323448651
  C         7.4222709172        8.7159476544       14.2109303617
  C         6.9969585820        6.4762132852       15.1498949065
  H         7.2073211057        4.9082085571       13.7622171335
  C        12.1358974979        6.4943920952        4.3293347612
  C         9.6382226949        6.4665774723        3.6319463532
  C        11.5177123516        3.9439659417        2.4704223882
  C        11.5399544942        2.6040106613        2.3672519034
  H        13.8682338481        1.6062816391       13.3932852273
  H        12.1392008099        1.2404771614       13.7988698199
  C        13.0229404823        2.5667985686       15.1101585091
  S         7.8239001263       10.6496901681       12.8474027162
  N         7.4727779847       10.1033489744       14.2960199373
  C         7.1545183415        7.9153810918       15.3780270576
  H         6.6454977818        5.8149433490       15.9891499093
  H        12.0852654227        7.4105463066        4.8463905200
  H        12.4013564316        6.7283414898        3.2728924224
  C        13.2584189965        5.7091102360        5.0070094221
  H         8.9928171781        6.9864569072        4.3324415089
  H        10.0897775912        7.2354697084        3.0936535548
  C         8.7084537610        5.6079492026        2.7174895868
  H        11.7564792283        4.6699904994        1.6624322889
  C        11.9874574719        1.8676331536        1.1008538928
  H        14.1323746945        2.7018984609       15.2492467473
  H        12.5770167607        3.5666470914       15.1829419931
  C        12.4404947549        1.6106357021       16.1983244051
  C         6.9445776900        8.6294394116       16.5777878087
  H        13.0007390929        5.4857654790        6.0388203143
  H        13.4579015416        4.7157423244        4.6106894584
  C        14.5337623797        6.5202659958        4.8694397825
  H         8.2663250065        4.7884300980        3.2139342111
  H         9.2577084681        5.1666448244        1.8869345861
  C         7.5525121185        6.4459481257        2.1883573067
  C        11.9224403413        0.4787763381        0.8903315781
  C        12.3877401316        2.6197348217       -0.1267004483
  H        13.1254575126        0.7726344705       16.1593485444
  H        11.4437089676        1.2672571415       16.0294192299
  C        12.5886094969        2.3061186314       17.5409148451
  H         6.9783219616        9.7436585603       16.6830087844
  C         6.7674567912        8.1640755192       17.8830939505
  H        14.5186218508        7.3620793079        5.5073223813
  H        14.6403004956        6.8720110357        3.8405884926
  C        15.6922657675        5.5604916377        5.1967264349
  H         7.1385884344        6.8899325087        3.0578511579
  H         7.9357384182        7.2144539983        1.4916144805
  C         6.5251134722        5.6031027738        1.4523976501
  N        11.6276204478       -0.4264900033        1.8823499020
  C        12.1942119707       -0.1033384906       -0.3600034779
  C        12.7545057059        2.0178821053       -1.3697873578
  H        12.5217880801        3.6707821706       -0.1354743841
  H        12.3010297122        3.4228932100       17.6090959784
  H        13.6974634467        2.3222442120       17.8383296804
  H        11.9577398797        1.9075634828       18.3082864523
  S         6.4576587142        6.5064767090       18.4653425202
  C         6.4683386081        9.1217942031       18.9516581337
  H        15.3444012346        4.8022948245        5.9219246027
  H        16.0324275545        5.0774422224        4.3353655962
  C        16.9101759823        6.3926956109        5.7408217436
  H         5.7894878626        5.2884469217        2.1983102580
  H         7.0782276251        4.7236900185        1.0725034663
  C         5.9144322703        6.3948539198        0.3092253665
  S        11.7249652846       -1.8827514023        1.2263042040
  N        12.1627778376       -1.4499066242       -0.2819170585
  C        12.6297078261        0.5833660077       -1.4938438300
  H        13.1146444841        2.7158200781       -2.1505605523
  C         6.0993156626        7.2319214388       20.0037277936
  N         6.0348584981        8.5633927478       20.1056267895
  O         6.6763699538       10.3285631832       18.7581855821
  H        17.4333780399        6.7637522574        4.8193691146
  H        16.6415638151        7.2340735163        6.3462085823
  C        17.8323522753        5.5838782342        6.4982599315
  H         6.6490586741        6.7073168459       -0.3593679432
  H         5.2547582478        5.6847622162       -0.2096960863
  C         5.0146511760        7.5211517287        0.7122479033
  C        12.8659505836       -0.1139296360       -2.6882819769
  S         5.5607954452        6.2083468278       21.3324238243
  C         5.8040426145        9.2921984525       21.3867419773
  H        17.3665327061        5.4671277611        7.5038171676
  H        17.9321006344        4.5515816938        6.0729385394
  C        19.1177047913        6.3192947066        6.8638913889
  H         5.5438692673        8.1968000417        1.3897029013
  H         4.1920546076        7.2007093292        1.3243924236
  C         4.3924223491        8.1775364611       -0.5378452173
  H        12.6957214866       -1.1845842666       -2.6522585588
  C        13.3967471597        0.2367385878       -3.8922764681
  H         5.0354616833        8.7943298012       21.9608537026
  H         5.3461005301       10.3065515151       21.2298553767
  C         7.1356320821        9.5600158526       22.0740127811
  H        19.6333923945        5.8415094610        7.6920720119
  H        18.8657283529        7.3173782438        7.0483254647
  C        20.0289290174        6.3232974102        5.6036192570
  H         5.0718492540        8.6614582076       -1.3256913061
  H         3.7949002124        7.4631615587       -1.0926159717
  C         3.4791619325        9.3627568729       -0.1199368633
  S        13.9502011241        1.8011453848       -4.3205215803
  C        13.5188220553       -0.8266130782       -4.8567466231
  H         7.3976091269        8.7685779337       22.7468298540
  H         7.2135428122       10.4993106515       22.6089813615
  H         7.9299869095        9.5857842977       21.2925845237
  H        19.8048409789        5.4059962222        5.0224981802
  H        19.7939138212        7.1280627638        4.9715732601
  H        21.0977437486        6.2041505235        5.9044813626
  H         4.2578803273       10.1975661151       -0.1555415855
  H         2.7300309245        9.4574020846       -0.8909981282
  H         3.0440038833        9.2601573572        0.8726438112
  C        14.4759677699        1.0232992071       -5.7912207888
  N        14.2265931207       -0.2656227853       -5.8926747074
  O        13.1052173176       -1.9773808156       -4.8194815898
  S        15.1841033374        1.8406177714       -7.2197875366
  C        14.3974986439       -1.0343059553       -7.1535742055
  H        14.3461957697       -2.1316324255       -6.9528225149
  H        15.3266912266       -0.9225344164       -7.6216191756
  C        13.1375304749       -0.8348878124       -8.0469172079
  H        12.3366956988       -1.5190521418       -7.8113125243
  H        13.3467333120       -1.0444441624       -9.0933829597
  H        12.6456045827        0.1204672764       -7.8582903235
  H        -1.5600652436       12.7123736093       15.4571238809
  C        -2.1098305347       13.6571673260       15.6475757162
  H        -1.9995975967       14.3129457754       14.7817256526
  C        -1.7774151939       14.0987036962       17.0617288631
  C        -3.5642316833       13.4726084635       15.5122103907
  C        -1.9634892779       12.9577688717       18.1006217236
  H        -0.7560374661       14.4471306233       17.1507851254
  H        -2.3816266518       15.0033336216       17.4033248055
  H        -3.7764993110       12.4632128469       15.8131828953
  H        -4.2100326687       14.2611248364       15.9318918274
  H        -3.7839054026       13.4886829514       14.4810073592
  C        -1.0675278857       13.0500590772       19.3537991264
  H        -1.5470318592       12.0458336433       17.6483518439
  H        -3.0787794828       12.9655370437       18.2885520813
  C        -1.9986424079       13.1857848714       20.5987194213
  H        -0.5131730630       12.1362324294       19.4586241739
  H        -0.4008187194       13.8452846934       19.2417146383
  C        -1.2362134717       12.6910817141       21.8283599332
  H        -2.9028559030       12.5740860772       20.3327280629
  H        -2.4089609730       14.1740558362       20.6229373831
  C        -0.1024160851       13.6903705676       22.3019729926
  H        -2.0070753177       12.5166728721       22.6373617382
  H        -0.8306407750       11.6451050380       21.7772458035
  C         1.0701062324       13.0635639936       23.0643857671
  H         0.2845849408       14.3933033459       21.6288853000
  H        -0.4796795966       14.5124161297       22.9963277516
  C         1.5093661006       11.7507695571       22.3900527548
  C         0.7193517628       12.3120155860       24.2998547262
  C         2.3129430608       14.0770258815       23.3793437806
  C         1.3186652846       10.6210600273       23.1541567927
  C         2.0182114451       11.5200299225       21.0863574544
  C         0.8591629312       11.0048502023       24.3949317454
  C         0.2095963975       12.9314810080       25.4224369021
  H         2.4862164003       14.6339854241       22.4262699928
  H         1.9647682736       14.7238584570       24.1496648810
  C         3.5969323598       13.4165771751       23.8917095314
  S         1.7768143311        9.2105803141       22.3366380594
  C         2.1591388756       10.1274048665       20.9296200254
  H         2.0974873536       12.3693794700       20.4445800472
  C         0.5556862092       10.3585145348       25.5363729646
  H         0.1680788212       13.9643688560       25.3220490982
  C        -0.0904947635       12.3219095526       26.5730440999
  H         3.8261294343       12.5763639475       23.3005510205
  H         3.2779229711       13.0234487659       24.8662467592
  C         4.7099945788       14.4798608844       24.1058291751
  C         2.5505253111        9.4159532578       19.6993062201
  C         0.1549285812       10.9668944331       26.7351037841
  H         0.6733308567        9.3392224825       25.5878608640
  C        -0.4312787003       12.7512624154       27.8276928350
  H         5.3443063025       14.0415234287       24.8664964244
  H         4.1646756424       15.2777425749       24.5951961107
  C         5.3126438885       15.2366597546       22.8857248225
  C         2.5953557893        7.9901557288       19.5088117306
  C         2.9706206158       10.2023892076       18.5309263876
  C        -0.1449117393       10.2950250619       28.0800482339
  C        -0.4699406517       11.7102286799       28.6963243422
  S        -0.7579637709       14.2616826743       28.5133033897
  H         6.0531044039       15.9296255114       23.2450011429
  H         4.5291039575       15.8733642002       22.4565529230
  C         6.0612425939       14.4308173203       21.9156903430
  N         2.3963629285        7.0145342645       20.4427170679
  C         2.7678721666        7.4816252180       18.2374513514
  C         3.1115345037        9.6929853111       17.3050164451
  H         3.1015462372       11.2876472750       18.6866306881
  C         1.1100287703        9.6604300014       28.8137750578
  C        -1.4325996596        9.4150846788       28.0573466146
  C        -0.7737327974       12.1430436489       29.9604679229
  C        -1.0150891017       13.4860800128       30.0245971308
  H         6.9007645363       15.0572245087       21.5609144059
  H         6.5516420861       13.5375290132       22.3341322229
  C         5.2044832207       13.9400912899       20.6989963702
  S         2.4183524141        5.5497662245       19.7176451560
  N         2.6421194540        6.1612931846       18.1688063261
  C         3.0686638266        8.2229036646       17.0950928020
  H         3.3246905103       10.3355072878       16.4578517651
  H         1.6410255995        9.0769958009       28.0239960198
  H         0.7503396736        8.9947720006       29.5965158523
  C         2.1533942782       10.4917997786       29.4681985517
  H        -1.2423218128        8.5017734345       27.4562829222
  H        -1.7236806245        9.0475218928       29.0508150787
  C        -2.7196905729       10.1344787915       27.5147566068
  H        -0.8231052851       11.4005724280       30.7599594916
  C        -1.4182502567       14.0907163838       31.3583627571
  H         4.8193924966       14.8214392517       20.1450757061
  H         4.3556986271       13.4317541045       21.1388048419
  C         5.9048951503       13.0534216219       19.7441011476
  C         3.2566054940        7.5517091706       15.8256794222
  H         2.4105034837       11.2815734833       28.7531241576
  H         1.7949632561       10.8949290510       30.3979058087
  C         3.3539588766        9.5372005079       29.6809579779
  H        -2.6600284750       10.5286750419       26.4583988862
  H        -2.9537649102       10.9778017742       28.1199098647
  C        -3.8088099474        9.0288134010       27.5554313994
  C        -1.4335583611       15.4875045223       31.6712917355
  C        -1.7063543115       13.1668121543       32.5941537210
  H         6.0745272244       12.1278501226       20.2760704923
  H         5.2043149332       12.8959266544       18.8762030979
  C         7.1839809377       13.6748010232       19.1380129769
  H         3.2378012826        6.4830512878       15.9852730610
  C         3.6800478046        7.9863269051       14.6057258263
  H         3.6917516264        9.1666956175       28.6945623450
  H         3.0520625918        8.6069308189       30.1882282102
  C         4.5072654234       10.2050139813       30.4917718985
  H        -3.4763793545        8.3381602780       26.7240050037
  H        -3.8304679193        8.4181236445       28.4673206060
  C        -5.2183866196        9.6599774869       27.3737849237
  N        -1.0991887254       16.4993434125       30.7638381749
  C        -1.7020768336       15.9798321909       32.9653758085
  C        -1.9626661574       13.7304762849       33.9007655774
  H        -1.6681317212       12.0575569860       32.5629171857
  H         7.9541704356       14.0904494389       19.9058068305
  H         7.6718063977       12.8423033734       18.6357227939
  H         7.0485595712       14.5073796797       18.5292140952
  S         4.1534976699        9.5891229987       14.1667248086
  C         3.7809717793        6.9859515968       13.4656974724
  H         4.7564865347       11.2429247652       30.1651251925
  H         4.2479818744       10.2675949119       31.5461861428
  C         5.8322530780        9.3556039794       30.3142215589
  H        -5.4313089714       10.5366471612       27.9184790602
  H        -5.9964240653        9.0328865982       27.7411158194
  C        -5.4974478880        9.8602224216       25.8457261411
  S        -1.3080513323       17.9015989766       31.6068139472
  N        -1.5969420687       17.3496782038       33.1106988525
  C        -2.0937445301       15.2015887523       34.0794786137
  H        -2.2753516808       13.0146796822       34.6324468789
  C         4.3720993274        8.9812425195       12.4976737823
  N         4.2195944327        7.6371049218       12.3777831283
  O         3.5790122398        5.7260551055       13.5996991582
  H         6.6962379283       10.0164943305       30.4081744386
  H         5.7829260065        9.0489940427       29.2562548432
  C         5.8483746623        8.1615171973       31.2613758581
  H        -4.7761805696       10.4605911141       25.3876114608
  H        -5.3813568291        8.9645256773       25.3244726901
  C        -6.9053672486       10.4734210707       25.6117572906
  C        -2.3190461625       15.8149012204       35.3784872388
  S         4.7256741454        9.9304020926       11.0141785238
  C         4.2482794764        6.9195172883       11.1759415751
  H         6.3844433120        8.5268139313       32.1564619542
  H         4.8679958694        7.9467921270       31.5960684884
  C         6.3346171755        6.8813911255       30.5743697633
  H        -7.1117956234       10.7751125519       24.6320446869
  H        -7.0450712831       11.3940050604       26.2584490845
  C        -8.0448887323        9.5536080448       26.0534556272
  H        -1.8936256415       16.7991111941       35.5160904342
  C        -2.8364330618       15.3152610952       36.5530922449
  H         5.1065499230        7.2166958505       10.6547309834
  H         4.5551372689        5.8694598482       11.3105743028
  C         2.8626164434        6.9020279170       10.4750582745
  H         7.1775470144        7.1028664015       29.8500913241
  H         5.5761808159        6.3782065742       29.9219109101
  C         6.7891078787        5.8806038722       31.6201980224
  H        -7.9051860022        8.5730178511       25.6981517386
  H        -8.1038958572        9.4985139838       27.1224578809
  C        -9.3414034366       10.1552733113       25.5817567182
  S        -3.5028457921       13.7598816600       36.7889110152
  C        -2.9283326340       16.2234508236       37.7263729224
  H         2.7348888214        6.0637746501        9.8241447748
  H         2.0560173795        7.0214179469       11.2215165871
  H         2.7199932775        7.8061866279        9.8322642356
  H         6.6340099766        6.2290089034       32.6510013240
  H         7.8151657426        5.6882050755       31.5527663294
  H         6.1731791981        4.9780326206       31.3233723826
  H        -9.4946783122        9.8605907646       24.5320988545
  H        -9.2513427871       11.2039382227       25.6151888091
  H       -10.2618219343        9.8310656604       26.0542641611
  C        -3.8337680221       14.2203836096       38.4016283340
  N        -3.5543727019       15.5271149722       38.6855496435
  O        -2.6593065455       17.4232349957       37.7970012143
  S        -4.5396768056       13.2112302695       39.7167253780
  C        -3.7579195025       16.0830483110       40.0562553113
  H        -3.8713923176       17.1561646607       40.0383630451
  H        -4.6284966918       15.6659180867       40.5858390377
  C        -2.5189789275       15.7416142739       40.9233009267
  H        -2.2788149073       16.2202231630       41.8384606862
  H        -2.6307129349       14.7029362781       41.1725003607
  H        -1.5644316286       15.7660524092       40.3360230894
