352
i=
  H         5.7640645832        1.7459316051       13.2666908520
  C         5.0562513560        2.6013472511       13.3896039555
  H         5.4317380284        3.5625591698       12.9878008430
  C         3.8467126004        2.4103864229       12.4713272674
  C         4.6616868394        2.8546008662       14.8740344495
  C         4.1930139579        2.8025161387       11.0134395938
  H         3.1252151662        3.1478041699       12.7812554495
  H         3.5890951694        1.3962151528       12.5057883447
  H         3.9821798112        2.1060103576       15.3130957272
  H         4.2297335423        3.8299041944       15.0659503038
  H         5.4744331009        2.8836071708       15.6158494568
  C         4.7393758954        1.5592908727       10.3101009774
  H         3.3066706767        3.1948395516       10.4346351853
  H         4.8598062907        3.5671637918       11.0224773156
  C         5.1714142780        1.7806125184        8.8432874864
  H         3.8633573575        0.8728434327       10.2460439763
  H         5.4280725649        0.9763588846       10.9435600209
  C         6.3904593665        2.6765514977        8.6317931997
  H         4.3012738637        2.2440138633        8.3517950272
  H         5.1954492054        0.8107337582        8.3569704111
  C         7.6638110430        2.0311207651        9.2119311198
  H         6.5161897922        2.8859043055        7.5678393989
  H         6.1930347516        3.6189404410        9.0261605996
  C         8.9124792703        2.9087624077        9.2967592184
  H         7.7741337639        1.0868413431        8.6442689135
  H         7.3638113475        1.6656030090       10.1918780132
  C         8.6826718726        4.2318361517       10.0097832015
  C         9.3383535409        3.7247277464        8.0427024233
  C        10.0047998644        2.1043362037       10.0578235604
  C         9.0136987205        5.3801719223        9.3034960279
  C         8.1246619201        4.6250913986       11.2347973401
  C         9.5029942914        5.0875521529        8.0294504868
  C         9.8569262764        3.1044379417        6.8744945904
  H         9.5795153472        1.4734293280       10.8562632486
  H        10.4224931369        1.3614373439        9.3446922515
  C        11.2038898209        2.9620187586       10.5651967710
  S         8.9192996061        6.8762973119       10.1481464973
  C         8.2836657567        5.9283516072       11.5103785741
  H         7.9215954169        3.8850978451       11.9666037898
  C         9.9793234564        5.7337168869        6.8906580580
  H         9.8092997059        2.0286879858        6.8462471139
  C        10.2581694691        3.7760974815        5.7661549518
  H        10.9111719459        3.9470577781       10.9492874535
  H        11.7320238952        3.1628395422        9.7076791403
  C        12.1848759613        2.2105259615       11.5125344552
  C         8.0466662123        6.5582705138       12.8992144010
  C        10.3546730630        5.1106232352        5.6465421847
  H        10.0141451483        6.7780968024        6.7914298029
  C        10.7359812160        3.3531397147        4.5400869793
  H        13.1705775491        2.6756842082       11.3186510375
  H        12.1792540059        1.1275999807       11.2816303228
  C        11.8410913832        2.3543197003       13.0571430698
  C         8.1187516664        7.8861708963       13.2238371219
  C         7.5786767309        5.6654170404       13.9825694087
  C        10.8907184733        5.7807557184        4.3691886487
  C        11.0095566198        4.4299177603        3.6651210530
  S        10.9396073824        1.8260766070        3.6887221116
  H        11.5594589690        3.4212440562       13.1487714633
  H        10.9161927536        1.7387215916       13.1441245431
  C        13.0161982034        1.9935801699       13.9872565339
  N         8.5347421005        8.8735385102       12.2855063597
  C         7.7913550271        8.4353616288       14.4249086249
  C         7.2177575772        6.2255163391       15.1811571920
  H         7.4932278287        4.5984302824       13.8816113333
  C        12.1802708781        6.5609620523        4.5153924472
  C         9.7716560843        6.6898635028        3.7172160653
  C        11.3682495725        4.0116652275        2.3654144704
  C        11.4069673622        2.6366493368        2.2988723163
  H        13.9309489599        2.0084443835       13.3993334479
  H        12.9882090369        0.9015481069       14.2676558642
  C        13.0702619286        2.9100082231       15.2098707591
  S         8.4053636982       10.3165741625       12.9558611408
  N         7.8137860586        9.8467514961       14.4181362856
  C         7.3964197307        7.6782716850       15.5003794148
  H         6.8958551141        5.5593101311       15.9641451415
  H        12.1163717644        7.3082938917        5.3059289687
  H        12.4984979917        7.0823739655        3.6212709983
  C        13.4307722026        5.7693980593        4.9718292807
  H         9.3349744471        7.4176902640        4.3794141296
  H        10.0796344512        7.2187458587        2.8405836568
  C         8.4769782832        5.9124413875        3.3414900259
  H        11.5620655741        4.8178450047        1.6263884505
  C        11.8489059359        1.8246143486        1.1073550172
  H        14.0707357358        3.1686314963       15.3219450980
  H        12.5521912619        3.7880509731       15.0224211744
  C        12.5097998932        2.2726887065       16.5233007682
  C         6.9744290967        8.3526453308       16.7324882996
  H        13.1921346127        4.8319845420        5.5170716463
  H        13.8893595324        5.3344621936        4.0638326272
  C        14.3888123605        6.6409574604        5.8461506589
  H         8.0837267611        5.3299222510        4.1788973023
  H         8.7184533447        5.2357892181        2.5065780944
  C         7.3552852611        6.8531599500        2.8110384537
  C        11.9184847419        0.3653020420        1.0665487371
  C        12.0365052957        2.5548936426       -0.1854722498
  H        13.0158194788        1.3049675373       16.6959960843
  H        11.4769027042        2.1736501642       16.4399258421
  C        12.7712728625        3.1756731167       17.7043844229
  H         7.1490463118        9.4041967576       16.7372441717
  C         6.5881696249        7.8506426408       17.9972329915
  H        13.9429178310        7.1545738741        6.6218244638
  H        14.8728771313        7.4678613783        5.2291860908
  C        15.5353888633        5.8356587563        6.4913231431
  H         7.1553182483        7.6250236433        3.5019175089
  H         7.8386875282        7.4020869369        2.0549421144
  C         6.1322065169        6.0842575854        2.2627261652
  N        11.8030056095       -0.4508972520        2.1942662162
  C        12.1923691337       -0.2438371096       -0.1011183252
  C        12.2105461912        1.8804400826       -1.3867741879
  H        11.9256534232        3.6072456887       -0.2093576509
  H        13.7063300935        2.8967515450       18.1742933362
  H        11.9473539381        3.1890035520       18.4553941883
  H        12.9797777137        4.1591454516       17.2562157602
  S         6.3191168598        6.2300980779       18.4992114614
  C         6.5071593075        8.8507978497       19.0540521699
  H        16.0331919126        6.4463342966        7.2314645425
  H        15.0965730066        4.9121851550        6.9219694370
  C        16.6358715587        5.3574620291        5.5220035918
  H         6.0111012488        5.1483263311        2.8047858190
  H         6.4175686044        5.7253104210        1.2596253390
  C         4.8081650307        6.9138128376        2.1465809330
  S        11.7063250451       -1.9358503789        1.5490848746
  N        12.3366275222       -1.6072441206        0.0746308376
  C        12.3632756945        0.3927120166       -1.3987323973
  H        12.1405949109        2.4052854988       -2.3056505295
  C         6.1190950536        6.9059458529       20.1208565658
  N         6.2792445608        8.2394485486       20.2250787914
  O         6.5975413010       10.0477525965       18.8899192971
  H        16.2789558840        4.3451706620        5.1284349832
  H        16.6677962741        5.9858428577        4.7204173751
  C        18.0317629116        5.2557871785        6.1673418711
  H         3.9595306662        6.2329475519        2.2379956724
  H         4.6291914931        7.5045844285        3.0690409072
  C         4.6840007296        7.8333319873        0.9478959054
  C        12.6966460393       -0.5233275668       -2.4583335152
  S         5.5299515334        6.0035057697       21.4910305397
  C         6.3375772879        9.0566201436       21.4294974059
  H        18.0158951035        4.6627103951        7.1285164759
  H        18.5892051798        4.4621711808        5.5724858570
  C        18.8144393641        6.5299150284        6.4473640639
  H         4.1430311725        7.1664505960        0.2004200512
  H         5.6790623365        7.9929476230        0.4749510086
  C         3.9969101214        9.2059409233        1.0080818783
  H        12.5167859838       -1.5618230680       -2.3239184701
  C        13.1042921603       -0.2172656613       -3.7154680367
  H         5.8102632954        8.6183768371       22.2863810755
  H         5.7464947037       10.0028507676       21.3008299620
  C         7.7685696514        9.3631746745       21.7255752383
  H        18.3519512172        7.1608190576        7.2350337017
  H        18.8460409889        7.1708189145        5.5350757642
  C        20.1929550722        6.1606678230        6.9890914290
  H         4.6024459435       10.1852688891        1.1006380130
  H         3.3687117039        9.2258843892        0.0349539351
  C         3.0742141168        9.3793309320        2.2012475341
  S        13.6474018794        1.3420694490       -4.2426379761
  C        13.2786380625       -1.2728065273       -4.7896103918
  H         7.7407461528       10.2002963131       22.3718647929
  H         8.2545676075        9.6352648429       20.8465900415
  H         8.1919906269        8.5400232830       22.3098182504
  H        20.1468042832        6.1067200917        8.0708104827
  H        20.6523735995        5.3067297721        6.5097105867
  H        20.9035480962        6.9693115925        6.7876310868
  H         3.7118447459        9.6087129500        3.0430688736
  H         2.3136220903       10.1931160892        2.1196898919
  H         2.4975521655        8.4799616450        2.3680790988
  C        13.9924615522        0.6572391158       -5.8209475101
  N        13.7321348561       -0.6695015658       -5.8980507865
  O        12.8393220923       -2.3882407479       -4.5870868653
  S        14.8638907196        1.5273351152       -7.0916416430
  C        13.9417515588       -1.4777091724       -7.1063129665
  H        13.9838664880       -2.5265837612       -6.8548599486
  H        14.8318239578       -1.2609318354       -7.6613248016
  C        12.6977921589       -1.2332137409       -8.0236453981
  H        12.8673884448       -1.9037796316       -8.8570133871
  H        12.4685368291       -0.2125149846       -8.3724528246
  H        11.8323632216       -1.5571113829       -7.5142679180
  H        -4.1555130594       13.7777375705       15.8707557221
  C        -3.4372755401       13.0054272316       16.1454550724
  H        -3.9770682878       12.1559502486       16.2911965709
  C        -2.4058227604       13.5518096810       17.2572877728
  C        -2.6448087171       12.4911135441       14.9452011322
  C        -2.9388647898       13.5309439015       18.6558758275
  H        -1.5998061147       12.8190016339       17.3617209312
  H        -1.9254677776       14.4946961754       16.9905832614
  H        -2.1321839016       13.2443706666       14.3583634786
  H        -1.8427401220       11.7645619222       15.2192366392
  H        -3.2845841866       11.9656212516       14.2702695222
  C        -1.8422290106       13.3202555492       19.7388534273
  H        -3.7146414710       12.7458702110       18.7922356584
  H        -3.5162575743       14.5124201855       18.7174612765
  C        -2.4098027056       13.1494763442       21.1623571365
  H        -1.0999764421       12.5191197258       19.4813140036
  H        -1.2377227834       14.1736051164       19.6968281294
  C        -1.4245767648       12.5420043323       22.2300398749
  H        -3.2252403652       12.4184076903       21.0305689792
  H        -2.8913124563       14.0482906380       21.5213043892
  C        -0.1845301531       13.4547420018       22.5136191624
  H        -2.0072242452       12.3220020932       23.1467197917
  H        -1.2188926853       11.5089462411       21.8711907577
  C         0.9961453559       12.8512563501       23.2451141829
  H         0.1567286995       13.8867630596       21.6151180805
  H        -0.5246681994       14.2388068955       23.1093411232
  C         1.4138802639       11.5343707073       22.5377364087
  C         0.6670350881       12.1357217177       24.5042386149
  C         2.1982413743       13.8775956559       23.4841375992
  C         1.2845845387       10.4235941327       23.3483117144
  C         1.9625582694       11.2304285507       21.2919666136
  C         0.8007975257       10.7937652534       24.5972653142
  C         0.1808973091       12.7570915637       25.6942980930
  H         2.3953340350       14.5975067506       22.6724840022
  H         1.9874481311       14.5263990952       24.3404937174
  C         3.6028955010       13.1998140127       23.8752514963
  S         1.8254380007        8.9892447884       22.5345393516
  C         2.1936951031        9.8851171545       21.1292542844
  H         2.1135950799       12.0539874768       20.6075075189
  C         0.4800576512       10.1372853152       25.7310130875
  H         0.1495096159       13.8183927258       25.7250651624
  C        -0.0510341467       12.0993974423       26.8363108113
  H         3.8540846712       12.4322203328       23.1339408169
  H         3.4885755011       12.7253778740       24.7918989954
  C         4.6723789251       14.1474542412       24.1383968620
  C         2.7816859740        9.2632437287       19.8880756109
  C         0.0370552348       10.7610314195       26.9355692446
  H         0.6551237991        9.0920473319       25.8965633782
  C        -0.3509390026       12.4933747743       28.1391054487
  H         5.4885304510       13.7640535431       24.8279822707
  H         4.1837689065       14.9796927729       24.6829538399
  C         5.2800453286       15.0519410291       22.9985928789
  C         2.8563774195        7.8844256869       19.6074046784
  C         3.0912897023       10.1553212653       18.7416812826
  C        -0.2765473025       10.0928047746       28.1875778398
  C        -0.5487478954       11.4032388213       28.9761306809
  S        -0.6371420803       13.9969083367       28.9116049966
  H         5.7704045822       15.9310479457       23.3988992578
  H         4.5727556141       15.4029552978       22.3193375808
  C         6.4692883532       14.3716673224       22.3193942133
  N         2.4970696074        6.8917894206       20.4633082744
  C         3.1804309214        7.4054166415       18.3572915455
  C         3.4112962149        9.6632779362       17.4812192968
  H         3.3669894872       11.2170978602       18.9113531843
  C         0.9614946935        9.3676663550       28.8507505195
  C        -1.5091025441        9.2642308444       28.1753151096
  C        -0.9460001383       11.8129605276       30.2700733058
  C        -0.9568174149       13.1180525496       30.4004927262
  H         7.2065463491       15.1186374485       22.1694595403
  H         6.9214190942       13.6748009800       22.9945565124
  C         6.1580905009       13.7696807304       20.9682632738
  S         2.4111527337        5.4375129845       19.6486002788
  N         3.0316025047        5.9920010408       18.2396279584
  C         3.4907505853        8.2178970480       17.2445697450
  H         3.5516263246       10.3639181536       16.6856459056
  H         1.2589803224        8.5810326251       28.1694037801
  H         0.5917287462        8.9449391311       29.7573574836
  C         2.1799949748       10.2614596391       29.2183827283
  H        -1.2773935721        8.3719927125       27.6218381486
  H        -1.6848811893        8.9118672712       29.1513551431
  C        -2.8192428223        9.9887827648       27.7596555309
  H        -0.9727810731       11.0235003011       31.0193203737
  C        -1.1901419317       13.8543311546       31.6755787643
  H         5.2222831989       14.2339652814       20.6270314840
  H         5.8750224432       12.7464070865       21.1009630007
  C         7.2296146175       13.7232804900       19.9084545916
  C         3.5476960548        7.5838674330       15.9311041132
  H         2.5151835282       10.8831131543       28.3985487315
  H         1.7724789960       10.9272659756       30.0500367345
  C         3.3014034133        9.4194975199       29.8174114322
  H        -2.7364945017       10.4006593406       26.7467079641
  H        -3.0414573714       10.8070296175       28.3921498485
  C        -4.0532185541        9.0707859347       27.7363574123
  C        -1.3354442849       15.2718470330       31.8682576387
  C        -1.4516409301       13.1079206031       32.9878211939
  H         7.8608792819       14.5984422382       19.8854011368
  H         7.9133242068       12.9513080872       20.2045874768
  C         6.9249183151       13.2964040897       18.4529396359
  H         3.1891728647        6.5787717578       15.8161406826
  C         4.0539427466        7.9677373674       14.6739209946
  H         3.6456855453        8.7821753028       29.0328414066
  H         3.0051694413        8.7826031057       30.6773273985
  C         4.4962437590       10.2414042309       30.3760852825
  H        -3.9124409210        8.2963306270       27.0563076393
  H        -4.2857750045        8.5769230322       28.6226154451
  C        -5.3229616709        9.8578863266       27.4686984487
  N        -0.9867415291       16.1424967771       30.8635649044
  C        -1.6097423921       15.8935051588       33.0632158079
  C        -1.8273448774       13.7792024798       34.1491602263
  H        -1.5237968292       12.0690584857       32.9043673999
  H         6.8902698760       12.2258868832       18.1851638605
  H         6.0130091433       13.7092091041       18.0571075119
  H         7.7050893725       13.6280469257       17.7825633433
  S         4.4930083693        9.5422669650       14.3606216729
  C         4.1065150216        7.0136752271       13.5956276495
  H         4.5832098623       11.0832154788       29.6314761966
  H         4.1374236437       10.6950784952       31.3361570945
  C         5.8265190168        9.4408255492       30.3619474268
  H        -5.2263856422       10.9177513504       27.7822431593
  H        -6.1418366018        9.4366739397       28.0616627799
  C        -5.7212312518       10.0340337498       25.9883368935
  S        -1.2192879192       17.6683509846       31.4607922849
  N        -1.5274455423       17.2435028137       32.9628631778
  C        -1.9134486192       15.2450839870       34.2792389551
  H        -2.0399733944       13.1394267517       34.9955024439
  C         4.8140480771        8.9649344053       12.7530126865
  N         4.6334831438        7.6079205964       12.5579945757
  O         3.8447734132        5.7751939500       13.6289653037
  H         6.6640117914       10.0637483400       30.5090242110
  H         5.9796839327        9.1183127529       29.3398209474
  C         5.8436483342        8.3616484497       31.4304635912
  H        -4.8826861497       10.6136753424       25.5742598817
  H        -5.5990451849        9.0846670087       25.4291288135
  C        -7.1332914971       10.6417544891       25.8201420517
  C        -2.2471850261       16.0500423859       35.3613643809
  S         5.1271788865       10.0081089132       11.3651453306
  C         4.6485665589        6.9023615674       11.2456906685
  H         5.7648218862        8.8176554078       32.4349008224
  H         4.9364886029        7.7529688589       31.1901524003
  C         7.0150393102        7.4141077453       31.3085443486
  H        -7.2288343685       11.1076973410       24.8100204241
  H        -7.2852270312       11.4900477577       26.4368218947
  C        -8.1338311640        9.5472895026       26.0173429221
  H        -1.8810733288       17.0981966718       35.3731681201
  C        -2.8891268184       15.7218622362       36.5187413294
  H         5.3082520788        7.3594385461       10.5995737204
  H         4.9989210076        5.8638085049       11.4738288197
  C         3.2676173961        6.7140447865       10.6432839531
  H         7.1668085358        6.9018674965       32.2455428154
  H         7.9228331939        8.0617917399       31.2083401426
  C         6.7867946573        6.4026851889       30.1905877087
  H        -7.8178244068        8.8534878777       25.2417398234
  H        -8.1212023197        9.0021103002       26.9286738036
  C        -9.4944277032       10.0435856920       25.7033385374
  S        -3.3651656953       14.1477583893       36.9762254190
  C        -3.0457560286       16.7358591448       37.6088255002
  H         3.1127097680        7.3783846494        9.7844806575
  H         2.9262238287        5.7099611133       10.4079594856
  H         2.4909930327        7.2433604600       11.2473153485
  H         6.9209402859        5.3524281128       30.4516938898
  H         7.5232914535        6.5493414747       29.3641772368
  H         5.8964556702        6.5998504635       29.5878127748
  H        -9.7000601110       10.2869199920       24.6617677521
  H        -9.7785931882       10.9529568697       26.3117481436
  H       -10.2272428581        9.2785974599       25.9204629109
  C        -3.7467432889       14.8192311299       38.5662793682
  N        -3.6019608246       16.1201273520       38.6972938391
  O        -2.7335593553       17.9358126819       37.5212490550
  S        -4.0085587520       13.8794715957       39.9814777729
  C        -3.7100168083       16.8778884936       39.9212555126
  H        -3.9218328655       17.8897661832       39.5669656188
  H        -4.6115179377       16.6005416945       40.5360089108
  C        -2.3437568154       17.0425958228       40.6497821645
  H        -1.5264571750       17.3032839500       39.9542649535
  H        -2.3184894550       17.9427260481       41.3519035439
  H        -2.0345324948       16.1044520339       41.0621179404
