352
i=
  H         4.0149691700        0.4700896369       12.3255112239
  C         3.5976082914        1.4943972872       12.3081123995
  H         4.4196585266        2.1413787755       12.6768059839
  C         2.9127479420        1.9896971472       10.9870331514
  C         2.5314404957        1.6613721740       13.3227317816
  C         4.0089691478        2.3935143885       10.0338610462
  H         2.1892311121        2.8615031078       11.1257734701
  H         2.3451343529        1.0947891219       10.5427414002
  H         3.1530434755        1.7550946394       14.1993048066
  H         1.9482756720        0.7588687640       13.4263502594
  H         1.8811071653        2.5133534610       13.1165784325
  C         4.7383965518        1.2356530816        9.4068756140
  H         3.6012855515        2.9982997854        9.2060812374
  H         4.5960143995        3.0734817845       10.6137908159
  C         5.5436747366        1.6807208959        8.1633917940
  H         3.9787773657        0.4437642975        9.0855492388
  H         5.4069427807        0.8062783654       10.1521369050
  C         6.7371159070        2.5792237399        8.5853394384
  H         4.9883641426        2.3179982752        7.4188569132
  H         5.8219797546        0.7609656513        7.6999583172
  C         8.1116629751        1.9795602026        9.0869152367
  H         7.0211658187        2.9888044973        7.6422567409
  H         6.4257269860        3.3975575319        9.1935751855
  C         9.2260970023        2.9903885958        9.0462545179
  H         8.3052868125        1.0600180176        8.6307262633
  H         7.9541845762        1.7738306634       10.1145087686
  C         8.8367610928        4.3337527238        9.7951387328
  C         9.5290246338        3.7519962386        7.8563804255
  C        10.6226700647        2.3751245228        9.5372497378
  C         8.8941181509        5.4590807485        9.0291996419
  C         8.3880016035        4.6548539201       11.0710538196
  C         9.4246850930        5.0809265668        7.8016202300
  C         9.9228368915        3.1781745193        6.6803245106
  H        10.3684830688        1.9552493022       10.5549569006
  H        10.8422101788        1.5005070638        8.9669520003
  C        11.7997842928        3.2670330544        9.8255254037
  S         8.3737689622        6.8988733330        9.7415404140
  C         8.0102881060        5.9741730465       11.1756185490
  H         8.2691635252        3.8324135750       11.7476772871
  C         9.5926319657        5.7355009735        6.5743053046
  H        10.1393923832        2.1190231446        6.6626318715
  C        10.1442451802        3.7916101826        5.5198355327
  H        11.5042677852        4.2599479879       10.2400429292
  H        12.4091411188        3.5611930074        9.0572108982
  C        12.7173149443        2.6558590678       10.8661448287
  C         7.5194040878        6.6576419324       12.4039737909
  C        10.0529622957        5.1242967472        5.3874295846
  H         9.3588100147        6.8026982526        6.5358901021
  C        10.5026843160        3.4279651102        4.2509859578
  H        13.7468351183        3.0424792518       10.8476581692
  H        12.6858463414        1.5924516547       10.6246123241
  C        12.3026726606        3.0727959690       12.2730892563
  C         7.5185785855        8.0683655513       12.6477533798
  C         7.1833614284        5.7609843122       13.5390137781
  C        10.4224779524        5.7908931052        4.1513641021
  C        10.6934458879        4.4904279329        3.4023044055
  S        10.8323420761        1.8965251598        3.6114230131
  H        12.8066560236        3.9524544126       12.5522773232
  H        11.2592336810        3.2888161864       12.2981133451
  C        12.8002640964        2.1853927453       13.4468288898
  N         7.7393794038        9.0669487317       11.7245647708
  C         7.3345151379        8.5564619805       13.9648326357
  C         6.8899648015        6.2627263834       14.8240456205
  H         7.1932629735        4.7423647290       13.4645770516
  C        11.6890528666        6.5976544459        4.2920238329
  C         9.3080992559        6.4953466623        3.5165627735
  C        11.0972086445        4.0531566605        2.1365056742
  C        11.1721568304        2.6283813892        2.0716593500
  H        13.8335411998        2.2886627731       13.6602887985
  H        12.6775715500        1.1246875372       13.0952609232
  C        12.0106773315        2.2015862103       14.7542736834
  S         7.6177963919       10.5401423846       12.5666086983
  N         7.5473213644        9.9409761377       14.0573949828
  C         6.9490999808        7.7325219513       15.0828928598
  H         6.7579647068        5.5761486331       15.5893205068
  H        11.4941752145        7.5149840830        4.8585893080
  H        11.9315729540        6.9634057387        3.2891582495
  C        12.8089006322        5.7668159164        4.8372598000
  H         8.9469039347        7.3373454468        4.0276934146
  H         9.6699082705        6.9728894119        2.6058560157
  C         8.0949582154        5.6366506208        3.2488751625
  H        11.2752869648        4.8016265495        1.4029831042
  C        11.6132075985        1.9303645437        0.8693164925
  H        11.9743859860        3.2406688739       15.1554285653
  H        11.0855653933        1.7252926196       14.5017747672
  C        12.6081831826        1.3030882499       15.7917071878
  C         6.6648109991        8.3498095171       16.3414643255
  H        12.7657450364        5.5719259432        5.9130222189
  H        12.9480476705        4.9060328552        4.2594216325
  C        14.1163010934        6.5424336219        4.7656900423
  H         7.6188755480        5.2432011190        4.1533131150
  H         8.3453210312        4.8015236312        2.6103390671
  C         7.0212589380        6.4496894604        2.4276540434
  C        11.6874583398        0.4897583362        0.7316117155
  C        11.7268514231        2.6955401749       -0.3555197414
  H        13.6848017468        1.3712043574       15.9489192339
  H        12.3668914043        0.2666926709       15.4634336783
  C        11.9949885463        1.5681713686       17.1292464045
  H         6.5877476606        9.4770996890       16.2551060067
  C         6.2788699058        7.9057458171       17.5772265214
  H        14.1235455102        7.4146708546        5.4151604203
  H        14.4086709361        7.0164818817        3.8530188221
  C        15.2498618777        5.5907562430        5.0247622529
  H         6.7934917902        7.4158480154        2.8665112300
  H         7.3480625974        6.8605982080        1.4462815309
  C         5.7871152712        5.6269273006        2.1598707165
  N        11.5373091581       -0.4213354347        1.7791113513
  C        11.8212298685       -0.1482708870       -0.4608797820
  C        12.0803829440        2.0097506228       -1.4991973869
  H        11.7987414340        3.7432857234       -0.3537096370
  H        11.9473646982        2.6184850293       17.3818653164
  H        12.5852131804        1.0618077583       17.9058828024
  H        10.9569316554        1.1746296535       17.2538813266
  S         6.2067328269        6.3021423099       18.1387805787
  C         6.0266842331        8.9524679045       18.5979312856
  H        14.9423735441        4.7480863232        5.6053005608
  H        15.6180830189        5.1680041711        4.1194288002
  C        16.4234211386        6.3225202227        5.7057428031
  H         5.4479639426        5.1023625683        3.0656916765
  H         6.0360093860        4.7774286340        1.4367001286
  C         4.5637031526        6.2729544868        1.5619604633
  S        11.4740047595       -1.9462661820        1.1738450475
  N        11.8588720204       -1.5315142240       -0.3820870966
  C        12.0170904589        0.5662106445       -1.6577955523
  H        12.1704984494        2.5762562905       -2.4176350734
  C         5.9734950896        6.9901799195       19.8207847262
  N         5.7388696370        8.3233748381       19.7680386560
  O         5.9811746611       10.2213176771       18.4013992826
  H        17.0913207666        6.7939757362        4.9911355715
  H        16.0876434901        7.2683690433        6.2407198656
  C        17.0935386856        5.3398907324        6.6926343473
  H         4.6675075832        6.8878155613        0.7109407328
  H         3.8633775747        5.4882241964        1.1583149889
  C         3.8778949535        7.1076047862        2.6708829054
  C        12.2857004025       -0.1931601194       -2.8205081893
  S         5.5923519076        6.1690039099       21.2809910866
  C         5.6672023075        9.0463444147       21.0544463386
  H        16.3958501657        5.1646064903        7.4783427070
  H        17.2419820135        4.3633698564        6.1678722631
  C        18.3828442477        5.8584838445        7.2297795322
  H         4.5217756382        7.2026731255        3.4720604442
  H         2.9473782164        6.6624230056        2.9270130284
  C         3.4008780691        8.4842955625        2.2241065852
  H        11.9572924015       -1.2144216801       -2.7223825449
  C        12.7863603626        0.0996404212       -4.0598736745
  H         4.8679605111        8.6194066784       21.6860043387
  H         5.1378767629        9.9618920583       20.7679305238
  C         7.0769782866        9.3722399237       21.5773364248
  H        18.8339592282        5.1933497086        8.0301753532
  H        18.2686262414        6.9424662982        7.5902967657
  C        19.4424012374        6.0719369427        6.1291124501
  H         2.4248135720        8.4749403965        1.7696460106
  H         3.3036119661        9.0163839386        3.1846271544
  C         4.3925791852        9.3770636161        1.4779812755
  S        13.4365359639        1.5536370111       -4.5976990848
  C        12.7563976587       -0.9344256691       -5.1221353753
  H         7.8849047050        9.2445065380       20.8350869974
  H         7.3629409835        8.7826688302       22.4882216260
  H         7.0877387467       10.4394732676       21.8799938515
  H        20.4642359620        6.1741659765        6.4810030439
  H        19.3829678212        5.1337035883        5.4999408220
  H        19.1929135946        6.7940097824        5.3789478524
  H         5.4689486739        9.2317888778        1.6997383774
  H         4.4248601034        9.2428340573        0.3596406187
  H         4.2368051128       10.4551927537        1.5990281350
  C        13.6524385078        0.8141658831       -6.1756727285
  N        13.3138931672       -0.4428439126       -6.2450292383
  O        12.3686448388       -2.0470801867       -4.9825826264
  S        14.4929031325        1.6265807685       -7.4997688526
  C        13.4298668350       -1.2423053349       -7.4437339624
  H        13.4890180401       -2.2703146729       -7.3028834309
  H        14.4194194892       -1.1655703675       -7.8877258092
  C        12.4244466447       -0.7970511875       -8.5383902661
  H        11.4287320058       -0.5335493566       -8.1636630527
  H        12.3637591240       -1.5342847468       -9.3412800202
  H        12.8160989426       -0.0072446579       -9.1101516898
  H        -2.9438605553       14.4539951444       16.0233758268
  C        -2.7265762614       13.3966386387       16.0634994678
  H        -3.6240185332       12.9782007125       16.4955733092
  C        -1.5576853408       13.1340956876       16.9955002206
  C        -2.5165336651       12.8952205006       14.6262771860
  C        -1.6962822887       13.6568183005       18.4457808792
  H        -1.5080781390       12.0146960064       17.1972557745
  H        -0.5697098434       13.4944052518       16.6201507095
  H        -3.4421767202       13.1525864428       14.0672548545
  H        -1.6665499258       13.3603289787       14.0640543389
  H        -2.3312893166       11.8467973166       14.6362371845
  C        -1.7821820551       12.5965664608       19.5931858366
  H        -2.6275579744       14.2204540498       18.6461501603
  H        -0.9873288182       14.4442130652       18.7465115685
  C        -2.3747594396       13.1922840529       20.9069394709
  H        -2.4925350447       11.8133018771       19.2640532452
  H        -0.7864656501       12.2744341883       19.7049881114
  C        -1.6827757403       12.5946244721       22.2023609591
  H        -3.3887800633       12.9543990963       20.9971758543
  H        -2.2123645051       14.2645975400       21.0060924462
  C        -0.2788840887       13.3060305689       22.4504288703
  H        -2.2787631336       12.8523831059       23.0639028153
  H        -1.7469750967       11.5262289147       22.1475462258
  C         0.8645087215       12.6720239341       23.1898521040
  H         0.1734401401       13.4760431699       21.4760938091
  H        -0.4271249208       14.3439954550       22.7741443707
  C         1.0956249071       11.3501665157       22.4782514305
  C         0.4729720062       11.9507771388       24.4033649851
  C         2.0402058207       13.5594531130       23.4157421248
  C         0.9656800264       10.2360896304       23.2796784987
  C         1.5241959723       11.0144960808       21.1968474874
  C         0.3904680198       10.5743747791       24.5148242452
  C         0.0786402871       12.5483758572       25.5891537437
  H         2.0753517849       14.2326877673       22.5762098029
  H         1.7490829636       14.2740459796       24.2085795565
  C         3.3818298086       12.8928785885       23.7224792070
  S         1.4552363876        8.7558763508       22.5739788246
  C         1.8661863398        9.6827710043       21.1387674892
  H         1.5618980645       11.7446973828       20.4154680040
  C         0.0110145730        9.9630210934       25.6521798632
  H        -0.1768585382       13.6424339479       25.5676390859
  C        -0.3316391721       11.9358329600       26.7109566240
  H         3.6362422179       12.1909728727       22.9296804643
  H         3.2416128405       12.3286793448       24.5983814241
  C         4.5756878449       13.8480910152       23.9926574718
  C         2.2322314303        8.8866301620       19.8809989356
  C        -0.4414225135       10.5721796104       26.8449038014
  H        -0.1169982540        8.9158875412       25.6138133087
  C        -0.7279195113       12.3559099428       27.9825296286
  H         5.2586632142       13.3075840363       24.5696085182
  H         4.2375494970       14.6360378778       24.6846499882
  C         5.1989809922       14.5229680710       22.7978110816
  C         2.3158305922        7.4978249226       19.7125842065
  C         2.4288334240        9.7707341357       18.6693612467
  C        -0.7590238524        9.9483218512       28.1067535841
  C        -0.9470552864       11.2629403530       28.8627478989
  S        -1.0739959973       13.8507182625       28.6815537581
  H         5.8177283444       15.3551385384       23.1870829111
  H         4.2622731765       14.8680733979       22.3025038899
  C         5.9816020140       13.6592626673       21.7605555021
  N         2.1726724582        6.6011453365       20.7566682251
  C         2.5905163968        6.8644066261       18.5362337907
  C         2.7758127814        9.0823031907       17.4829515762
  H         2.4697977004       10.7992367166       18.7428295978
  C         0.2849883578        8.9209283460       28.5957945986
  C        -2.0930415671        9.2667443110       27.8007841124
  C        -1.2996330299       11.6501216358       30.1422355475
  C        -1.4406441358       13.0011053185       30.1905243199
  H         6.7895838439       14.3532799517       21.4877282187
  H         6.5087653993       12.8792138259       22.2130831423
  C         5.1425939259       13.1286061498       20.5530799936
  S         2.3162582558        5.0793284637       20.2267783034
  N         2.4481020542        5.4892200930       18.6091883571
  C         2.8714010449        7.5719581811       17.3564689364
  H         3.0198309932        9.7672815148       16.6454097268
  H         0.3695048996        8.2286907116       27.7951861235
  H        -0.0037053334        8.4983978219       29.5634111235
  C         1.6062991320        9.6433767624       28.9684529188
  H        -2.0344061448        8.5242650629       27.0313893337
  H        -2.3977746897        8.7771667722       28.6526769889
  C        -3.2329317094       10.2138545668       27.2897294815
  H        -1.4538415982       10.9076329112       30.8681370145
  C        -1.7491537622       13.8082351620       31.4151975590
  H         4.1243056899       13.5713647188       20.5184759622
  H         5.0640876589       12.1101821610       20.6977726021
  C         5.8927453154       13.5900749018       19.2523568146
  C         3.1391094945        6.8942004195       16.1424959077
  H         2.0322607387       10.0783449898       28.0736668944
  H         1.3644069040       10.5076975522       29.6356792299
  C         2.7347935142        8.7106521986       29.4953531141
  H        -3.0340207219       10.6836131235       26.3214927619
  H        -3.3849782608       11.1396257843       27.8749865225
  C        -4.5546662253        9.4490395311       27.1815579747
  C        -1.7796603126       15.2322736024       31.5872271274
  C        -1.9831521176       13.0505843264       32.6985682257
  H         5.3387072505       13.2317498047       18.3619495571
  H         5.8088734088       14.6823629812       19.1558565691
  C         7.3497366124       13.0936818866       19.1215945710
  H         3.0905363847        5.7988058955       16.2015435470
  C         3.5932883899        7.3477098102       14.8876131243
  H         3.0755552464        8.2352567845       28.6019548441
  H         2.2986670066        8.0638550038       30.1947866356
  C         3.7077588804        9.6737941073       30.1591507616
  H        -4.3640052694        8.4785632868       26.6696834738
  H        -4.9886592170        9.2634623433       28.1816105067
  C        -5.6101121304       10.1598758615       26.3079772250
  N        -1.5861577813       16.1556056576       30.5846649063
  C        -2.0164560589       15.8635798007       32.8163668915
  C        -2.3008742538       13.6486784160       33.8990828370
  H        -2.0193422562       11.9547797164       32.6145122370
  H         7.4775036810       12.5022956057       18.1942029119
  H         8.0179895113       13.9523995328       19.0939031668
  H         7.6521776773       12.4364871044       19.9272030912
  S         3.9071943489        8.9743987542       14.2695316485
  C         3.7070746798        6.2946525200       13.7936147178
  H         3.7946702030       10.6202153859       29.6141390028
  H         3.3966030500        9.8757615523       31.1952929258
  C         5.0996126903        9.0052316135       30.1740522137
  H        -5.3385429891       10.2748063858       25.2584520780
  H        -5.6061447873       11.1786731006       26.7921508754
  C        -6.9487551024        9.4690127332       26.5413971595
  S        -1.5916464756       17.6639543885       31.1553243348
  N        -2.0508866660       17.2558434321       32.7173986781
  C        -2.2615505632       15.1300009692       33.9913526586
  H        -2.4275191812       13.0024938227       34.7546584021
  C         4.0917026836        8.2245016387       12.6850586904
  N         4.0692918093        6.8692474968       12.6243588623
  O         3.5966738254        5.0978205289       13.9975002072
  H         5.8590128437        9.7404787014       30.3802838611
  H         5.3058606919        8.5071525743       29.2725048141
  C         5.2256724987        7.9293563281       31.3021539623
  H        -6.7982926377        8.4082134601       26.4472222253
  H        -7.2899858010        9.6754536833       27.5652840814
  C        -7.9492454762        9.8964045154       25.4732481445
  C        -2.5980473539       15.8803281163       35.1540732934
  S         4.4768447769        9.2837867368       11.3477507159
  C         4.0403484607        6.1014385610       11.3758957149
  H         5.7466773415        8.3580744373       32.2369979361
  H         4.2128660033        7.6140089190       31.5385072843
  C         5.9137215515        6.6528560459       30.7869806610
  H        -7.5992598342        9.4449806391       24.4939529374
  H        -7.9798871171       10.9756855403       25.2847643070
  C        -9.4238026107        9.3893473674       25.6831344591
  H        -2.4757966052       16.9368640788       35.1329089955
  C        -3.0107521202       15.4401822985       36.4059400659
  H         4.8037706177        6.5611496909       10.6897619486
  H         4.4362242346        5.1650105457       11.5768118183
  C         2.6050654420        5.9569240198       10.8533834526
  H         6.7842145548        6.8956091071       30.2254953686
  H         5.3173327326        6.1218210184       30.0188490937
  C         6.0305777875        5.5320234654       31.8767417532
  H       -10.0524536799        9.6184800888       24.7501918889
  H        -9.3964252668        8.2844972455       25.9761496636
  C       -10.2187718058       10.1917659589       26.7786236513
  S        -3.4236786415       13.8614556232       36.9798974688
  C        -3.0858406349       16.5203756197       37.4846939576
  H         2.5290780375        5.1991202689       10.1222020247
  H         1.8945092351        5.7728084025       11.6449575790
  H         2.2542019953        6.8863594915       10.4020863109
  H         5.9773860783        5.8716934296       32.9316674374
  H         6.8311542413        4.7888211753       31.8105385954
  H         5.1032550800        4.9748134812       31.6975056909
  H       -10.9494187094        9.5316845088       27.1747298304
  H       -10.4715951878       11.2181159398       26.4330498990
  H        -9.6818960141       10.3761053165       27.6985928533
  C        -3.6864447871       14.6172294543       38.5439616758
  N        -3.4437943071       15.9494750268       38.6284641191
  O        -2.7744492706       17.7292772413       37.3192183368
  S        -4.5078725862       13.9484907436       39.8971926923
  C        -3.4199572195       16.7037610304       39.8928100868
  H        -3.7184319526       17.7492960147       39.5944639927
  H        -4.1026626331       16.3259807948       40.5834182266
  C        -1.9834290178       16.5979988937       40.4772796069
  H        -1.8986327358       15.6703561880       41.0531568770
  H        -1.1403440800       16.6749057346       39.8175632924
  H        -1.8462163251       17.4175578868       41.1976347501
