352
i=
  H         2.3561429747        0.6636623764       12.3915706040
  C         2.9707268963        1.5459908876       12.1966493754
  H         3.9774965082        1.0391603200       12.0891857720
  C         2.5458714948        2.1770296738       10.8935473456
  C         3.0291089532        2.5342503537       13.3746406154
  C         3.7831670130        2.4666573960        9.9909733175
  H         1.9996735275        3.0237687844       11.1444540658
  H         1.8779969179        1.4523099764       10.3340611970
  H         2.9632525889        1.9858668997       14.2829462628
  H         2.2443911174        3.2714791745       13.5917448225
  H         3.9792964770        3.0549782259       13.4995778303
  C         4.6734535294        1.3100026909        9.5592481834
  H         3.4257874479        2.8618500025        9.0580271110
  H         4.4925131926        3.2700810523       10.2764813465
  C         5.4639141683        1.5617668673        8.1860643202
  H         4.0100493938        0.5235711976        9.4897888988
  H         5.3949779732        1.1771987324       10.4124909198
  C         6.6962739362        2.4878208765        8.3454289818
  H         4.8609310491        2.0636367294        7.4501448380
  H         5.7535802427        0.6067875443        7.8289165482
  C         7.9204395957        1.8068836282        8.9934411940
  H         6.9588317209        2.9607731139        7.4436747889
  H         6.3503724719        3.3455894623        8.9179692619
  C         9.0819159914        2.7256007339        9.3168411409
  H         8.1655558397        1.0053229066        8.3738370050
  H         7.5663062609        1.4723702839        9.9072930867
  C         8.6033667123        3.9981451600       10.0227535704
  C         9.5009635483        3.4982641845        8.1034130458
  C        10.1866133525        2.1420040066       10.2481150235
  C         8.7874696622        5.2004115089        9.2996448923
  C         7.9760989247        4.2370650976       11.2667659987
  C         9.3447901849        4.8717478161        8.0811597413
  C        10.0886933688        2.9201128981        6.9609459074
  H         9.7578482649        1.6722302852       11.0116741723
  H        10.5910958235        1.3571839477        9.6405500082
  C        11.2786635922        3.1771792981       10.6558566432
  S         8.2907304716        6.6219547842       10.1118105262
  C         7.7990691527        5.6391837501       11.4871314113
  H         7.7947911835        3.4711307627       11.9980375528
  C         9.8259072700        5.5059386535        6.9550280432
  H        10.1321322408        1.8364578433        6.9985403034
  C        10.3983385677        3.5880236120        5.7765759318
  H        10.8512536820        4.0325944262       11.2846361286
  H        11.6460245894        3.7389295514        9.8444705219
  C        12.5431991620        2.5266187531       11.3944168854
  C         7.3698480510        6.3433616641       12.7682166246
  C        10.3422057584        4.9232056323        5.7650218258
  H         9.8693508742        6.5797229200        6.9770983597
  C        10.7434356034        3.2619714542        4.4640026580
  H        13.2752276061        3.2620470292       11.6617104972
  H        12.9567898417        1.7406169530       10.7638520007
  C        12.1415318113        1.9151856526       12.7584687181
  C         7.5652362329        7.7304093976       13.0249804546
  C         6.8942052458        5.5115698742       13.9521041570
  C        10.8190531725        5.6501765720        4.5316349815
  C        11.0328465612        4.3968856212        3.7128408769
  S        10.9600657120        1.8122528844        3.6532332891
  H        11.2012036850        1.4175624293       12.6975900674
  H        12.8702716226        1.0855010678       13.0641052172
  C        11.8612164210        2.8132361679       13.9382387369
  N         7.9889053418        8.6700525397       12.1329314862
  C         7.3514880078        8.2719880958       14.3018985748
  C         6.8106077817        6.0499992260       15.2463004586
  H         6.4675519672        4.4830967511       13.8622417429
  C        12.0895999724        6.4592235044        4.8763925804
  C         9.8036583399        6.6334443186        3.9128535698
  C        11.5588616697        4.0845858839        2.4574941136
  C        11.4897741022        2.7066690679        2.3058668128
  H        10.7776010947        3.1813629322       13.8929832632
  H        12.4949245844        3.6893228647       14.0444807075
  C        11.9014900382        1.8961697849       15.2226489026
  S         8.1266464606       10.0977662486       12.8709611423
  N         7.5280105844        9.6555731919       14.3443834844
  C         6.9159926691        7.5432287315       15.4450939321
  H         6.6711041200        5.4022986181       16.0500640301
  H        11.8963719139        7.2535161744        5.5853582795
  H        12.4073775307        6.9785106241        4.0142241247
  C        13.2410390563        5.5613272833        5.2889585496
  H         9.4966134061        7.1261732035        4.7896731733
  H        10.2705560163        7.3165437238        3.1940726524
  C         8.5270732346        6.0361194206        3.3166634769
  H        11.9486009428        4.8471901576        1.7630301296
  C        11.8705594532        1.9516415790        1.0810963197
  H        11.0319354089        2.1156607104       15.7891207150
  H        11.7469614580        0.8499817949       15.1110458564
  C        13.1620659093        2.0670039220       16.1050517310
  C         6.7224337859        8.2474581794       16.6527078109
  H        12.8348959338        4.8955997634        5.9808286531
  H        13.4688458027        4.9441257477        4.5067104337
  C        14.5286221310        6.3201498353        5.7396917197
  H         7.6819073502        6.5319084012        3.8024173946
  H         8.3564489173        4.9632674596        3.3984142632
  C         8.4036045097        6.2372772709        1.8624282817
  C        11.8279258461        0.5731360011        0.8268171843
  C        12.1832903357        2.7491247397       -0.1008928404
  H        13.9103011653        2.7810807674       15.6382281376
  H        13.6124862858        1.0948530377       16.1679460788
  C        12.8637956380        2.6414581142       17.4241920205
  H         6.8750579028        9.2996272226       16.5948775367
  C         6.4795843082        7.8469638599       17.9216482918
  H        14.2402657641        7.1575052681        6.3632189681
  H        14.9287014535        6.8227718914        4.9348624704
  C        15.5179245570        5.4308569548        6.4081906277
  H         8.5512095630        7.2972336607        1.6073944992
  H         9.2581098875        5.7125371875        1.3974543454
  C         7.1428412537        5.6943921315        1.2118064809
  N        11.6420608442       -0.3865649891        1.8146396630
  C        12.3044555534       -0.0870532541       -0.3421606667
  C        12.6536040726        2.1390491249       -1.2447807213
  H        12.2401217296        3.8261709668        0.0734151280
  H        12.3687168258        3.6164954769       17.4849587955
  H        13.6708647087        2.6062894676       18.1363715035
  H        12.1045544221        1.9986537114       18.0065828017
  S         6.2689381190        6.2562092656       18.4618427735
  C         6.3585558877        8.8522499074       18.9553116736
  H        15.7423872662        5.8545481680        7.3649953941
  H        15.1316553998        4.3472405972        6.5468402540
  C        16.9074047113        5.3172497524        5.6686247707
  H         7.1582967944        4.5921510696        1.1890710588
  H         7.1800010177        6.0375031047        0.1254412292
  C         5.7672782565        6.1627748168        1.8379249338
  S        11.7552172868       -1.8961576917        1.1962428942
  N        12.1927189291       -1.4744133381       -0.3190762246
  C        12.7379481763        0.6793409077       -1.4276745745
  H        13.0596776149        2.7822581497       -2.0611141091
  C         5.8068461214        6.9806762212       20.0572269024
  N         5.9104187001        8.2738125914       20.0662282628
  O         6.3345362499       10.0367544387       18.7037907637
  H        16.6438473916        4.7465323691        4.7994229636
  H        17.3860982959        6.1964864476        5.3162765082
  C        17.8709725191        4.4170502561        6.4776258908
  H         4.9052784697        5.8539949952        1.3280732356
  H         5.7289977225        5.7927342530        2.8587218726
  C         5.5778964899        7.6652068228        1.7495684117
  C        12.9168988951       -0.0317225455       -2.6355888405
  S         5.2855746260        6.0853377930       21.5062007183
  C         5.7203130583        9.1224470273       21.3165572142
  H        17.2524146350        3.6705920885        6.8982891980
  H        18.5452511937        3.9221170493        5.8093987614
  C        18.5506177604        5.0921745677        7.6620020243
  H         5.8633824015        8.1213070901        0.8413357172
  H         6.1519834285        8.1200580254        2.5208101363
  C         4.0615367477        8.0673394578        1.8980387932
  H        12.6253894880       -1.0570192927       -2.5346963551
  C        13.3915789698        0.3011264861       -3.8999426119
  H         4.9588633043        8.6332326081       21.9195489753
  H         5.3659191598       10.0977386777       21.0353305204
  C         7.0195003251        9.3946435659       22.1306415516
  H        18.8301861921        4.3346337990        8.3779859643
  H        17.8286941337        5.6626954235        8.2139994484
  C        19.7724718868        5.8732435038        7.2431373181
  H         3.6348420521        8.1720932485        0.8937591079
  H         3.3293428727        7.3170320830        2.3439889513
  C         3.7776480788        9.4409304622        2.5682405330
  S        14.0315526292        1.8455935685       -4.3282190382
  C        13.2803673723       -0.7311881279       -4.9123130909
  H         7.2499673709        8.5251874244       22.6978366823
  H         6.9871281796       10.3714588659       22.6466218739
  H         7.7926720243        9.4385691653       21.3789195572
  H        20.4420074156        6.1668272896        8.1262462386
  H        20.3058548556        5.1591415209        6.5634839953
  H        19.6152900855        6.8054892215        6.6987746581
  H         4.6430154584       10.0693730608        2.6527657746
  H         2.9409503033       10.0746363681        2.0759830441
  H         3.3280677718        9.2643778810        3.5343863225
  C        14.2509724844        1.1448666618       -5.9122059280
  N        13.9142377388       -0.2034612456       -5.9927041041
  O        12.9100259096       -1.8927889108       -4.8063692156
  S        14.9467902501        1.8851242948       -7.3760114098
  C        13.9376735768       -1.0702549511       -7.1762991498
  H        14.1051911388       -2.1104690607       -6.9837090483
  H        14.8558153296       -0.7377158030       -7.7107775388
  C        12.6865319199       -0.9677573016       -7.9955944021
  H        12.7943032563       -1.5718046831       -8.8792687304
  H        12.5461033556        0.0337047393       -8.3348270172
  H        11.8654668966       -1.3414407470       -7.4279643302
  H        -3.4577000730       14.7285680587       16.8409005660
  C        -2.8738190656       13.7821484177       16.8492840301
  H        -3.5910238066       13.2904235989       17.4285439408
  C        -1.6462384385       13.7420210147       17.7615074004
  C        -2.7636851320       13.3369824223       15.3691302803
  C        -2.0802196110       13.2667463133       19.1376009519
  H        -0.8610586287       13.1055629175       17.3560419618
  H        -1.2714615940       14.7296662846       17.8802108939
  H        -1.7983279853       12.9518686461       15.2630218868
  H        -3.4544312437       12.4567137711       15.2389999622
  H        -3.0509423724       14.0978525560       14.6685532772
  C        -1.0302589323       13.0979058195       20.1500798854
  H        -2.6667841452       12.3486906907       19.1472038426
  H        -2.8279305436       13.9735960952       19.4247738823
  C        -1.6413742215       13.0479190439       21.5359023189
  H        -0.4492649458       12.2022677549       19.9584582526
  H        -0.4002099274       13.9877029811       20.1580249912
  C        -0.7833417913       12.6306223401       22.7130542135
  H        -2.4499495078       12.3468065585       21.3866829577
  H        -2.1630890715       13.9526311813       21.6966245358
  C         0.4302501315       13.5599267815       22.8563412163
  H        -1.3461534420       12.5530198976       23.6012002610
  H        -0.5550721174       11.5748793194       22.4697931553
  C         1.6114950896       12.8207617045       23.5790373477
  H         0.7487070385       13.9915296984       21.9129599653
  H         0.0950795450       14.5032181191       23.2679885447
  C         1.8952593163       11.4816820230       22.8548607096
  C         1.0739906857       12.1033657433       24.7515982415
  C         2.8492819742       13.7850676434       23.7710379257
  C         1.4630451465       10.3801164602       23.6147365072
  C         2.3557885043       11.1457161801       21.5658282661
  C         0.9839435372       10.7438489199       24.8184970652
  C         0.5283508780       12.7403797562       25.8981556975
  H         3.1768932860       14.0987855940       22.7534059405
  H         2.6149403365       14.6516121697       24.4550661635
  C         4.1503586319       13.2014387893       24.2727859149
  S         1.7260784951        8.8705878407       22.7938208756
  C         2.3055750617        9.7834826561       21.3458648313
  H         2.6376381574       12.0353246289       20.9116457947
  C         0.4915621723       10.1466313393       25.9929316436
  H         0.5393491403       13.8437887172       25.9317482648
  C         0.0187317651       12.1477716634       27.0337385863
  H         4.6058486037       12.4261641864       23.6556067492
  H         3.9885916575       12.6790883330       25.1651059650
  C         5.1821489201       14.2874474234       24.5995170914
  C         2.5790759856        9.1267474094       20.0048495806
  C        -0.0947516818       10.8165986425       27.0845267727
  H         0.3648647064        9.0476065832       25.9156031005
  C        -0.5088258044       12.4885087615       28.2162142729
  H         5.9640100240       13.7519974136       25.1473040027
  H         4.8913317998       14.7876484112       25.5159745446
  C         5.6911120823       15.1368011609       23.4231678049
  C         2.5110780212        7.7493278573       19.7440754542
  C         3.0232606615        9.9922947257       18.8570477569
  C        -0.5954435122       10.0430479669       28.2798576266
  C        -0.9191385900       11.4236116821       28.9948844901
  S        -0.8273051034       14.0236136012       28.8620238637
  H         6.1994215437       15.9661642294       23.7888102000
  H         4.7778144354       15.4033135039       22.8122219800
  C         6.6061915753       14.2493763429       22.5656901448
  N         2.0736587485        6.7678737912       20.6495373847
  C         2.8175152117        7.2204292257       18.4841050512
  C         3.0481876926        9.4566411779       17.6421657390
  H         3.3778556478       10.9884000319       18.9626048022
  C         0.5525435414        9.2811707424       29.0628221562
  C        -1.9338055379        9.2806959562       28.2429321521
  C        -1.2448660198       11.8786477816       30.2782916604
  C        -1.2779534761       13.2480149237       30.3407288308
  H         7.6076795036       14.6312830782       22.5802246991
  H         6.6719577272       13.2495180172       22.9419141248
  C         6.0695312932       14.1179602010       21.1487536639
  S         2.0106176997        5.3179111432       19.7974869252
  N         2.7681991727        5.8106106788       18.4260989551
  C         3.0775762966        8.0150658877       17.3946892046
  H         3.3716213396        9.9790188653       16.7739768458
  H         0.9799135115        8.5325644644       28.4107260333
  H         0.1714090899        8.7640648848       29.9524624121
  C         1.7564930955       10.1902875498       29.4137161918
  H        -1.7564125827        8.2772644254       27.8417963988
  H        -2.3003242644        9.2490358180       29.2982271140
  C        -3.0453153442        9.9978626676       27.4395690133
  H        -1.4835130174       11.1428878950       31.0106117753
  C        -1.5461768628       14.0416689058       31.6307175281
  H         6.0579757682       15.0730608587       20.5964082884
  H         4.9733894283       14.0023340674       21.1537346826
  C         6.8104953838       13.0618893568       20.3496150817
  C         3.3249339979        7.4013116610       16.1184666190
  H         2.1760445710       10.5806832731       28.4851294563
  H         1.4064009623       11.0373806383       29.8821603340
  C         2.7131292686        9.4810937544       30.4343675939
  H        -2.7869028794       10.0283396576       26.3724243369
  H        -3.1697413299       11.0541484707       27.7831086296
  C        -4.4420424255        9.3689121176       27.5838790989
  C        -1.6167874300       15.4497262033       31.7008326911
  C        -1.9150599810       13.2855855942       32.9286074409
  H         7.6654206095       12.6587523018       20.9065434178
  H         6.2797391084       12.0936703783       20.1040609488
  C         7.3803471151       13.6579208831       19.0817545906
  H         3.1743398426        6.3856741128       16.0733321522
  C         3.7400508934        7.8509533830       14.8614885238
  H         2.6852055409        8.4547722630       30.2241846078
  H         2.2563891139        9.4903001730       31.4078169687
  C         4.1692017431        9.9985645661       30.4245005447
  H        -4.4620956988        8.4513219513       27.0249728672
  H        -4.6490031043        9.0809254094       28.5856369508
  C        -5.6690087700       10.2463734116       27.1754989589
  N        -1.3038915342       16.2908729341       30.6657337228
  C        -1.9309435693       16.1568275868       32.8936458539
  C        -2.3443010378       14.0377504058       34.0562283902
  H        -1.8538797122       12.1841123266       32.9391055923
  H         6.6725656925       14.1602903043       18.4938276771
  H         8.1577145300       14.3310083945       19.3518110633
  H         7.7905871825       12.8501949525       18.5487602584
  S         4.1588665719        9.4364050275       14.3070505195
  C         3.7471298409        6.8153122156       13.7962407688
  H         4.3397697421       10.7919091570       29.7241032889
  H         4.1667157902       10.5541510599       31.3879784522
  C         5.2450454735        8.9384490771       30.2646552718
  H        -5.7228758971       11.1162833266       27.7366837035
  H        -6.5510218528        9.7018914658       27.4726692483
  C        -5.5770544333       10.6936860485       25.7515864480
  S        -1.4192547987       17.8410000001       31.2104593530
  N        -1.6907263617       17.5234610560       32.7739925676
  C        -2.3102995800       15.5192369532       34.1260933575
  H        -2.7317129764       13.4577559630       34.9447867545
  C         4.2864474916        8.6793129609       12.7241659403
  N         4.1910278161        7.3163769234       12.6458027760
  O         3.5587456722        5.5898071193       13.9532754049
  H         6.2182134075        9.4047365100       30.2112760974
  H         5.0164150385        8.5867573482       29.2685061339
  C         5.2217694436        7.9352730680       31.4101061583
  H        -4.8447396653       11.5516714822       25.7929434131
  H        -5.0949722140        9.9848122952       25.1294106861
  C        -6.8327017684       11.1957901760       25.0983450049
  C        -2.5951373102       16.2961623047       35.2713112625
  S         4.8492624001        9.5266669218       11.2555475683
  C         4.4243706258        6.5250858503       11.3973824645
  H         5.8613485368        8.2924380953       32.1705129300
  H         4.1905267924        7.8627975730       31.7742686950
  C         5.7816247752        6.5258480885       31.0570703547
  H        -6.5498085683       11.3939700518       24.0524766483
  H        -7.1822092973       12.1283515445       25.5328223003
  C        -7.9945987949       10.2363558336       25.1229226594
  H        -2.4574562858       17.3233402109       35.1372412446
  C        -3.0542448120       15.9346461421       36.5064764049
  H         5.2757590122        6.9554323868       10.9003762708
  H         4.6871048243        5.4908489047       11.5657705705
  C         3.1235970348        6.6458308004       10.6602296991
  H         5.0907281671        6.0220981305       30.4015429229
  H         5.6591561910        5.8844972532       31.9661427946
  C         7.1979549973        6.3704204019       30.5123294773
  H        -8.3734792263       10.3018995732       24.1352131337
  H        -7.6098409308        9.2149612581       25.1599424792
  C        -9.0873983960       10.4521888483       26.2219199117
  S        -3.5437594958       14.3810263973       37.0649205627
  C        -3.3016089200       17.0256399275       37.5040242816
  H         2.6500329190        7.6589828055       10.6562187470
  H         3.2763248161        6.2586557436        9.6668198157
  H         2.3749102275        5.9794620913       11.1492678210
  H         7.4339742437        5.2382737724       30.3632346842
  H         7.8077658944        6.8303854862       31.2770718618
  H         7.2641777302        6.9100736379       29.5664084557
  H        -9.5074077514       11.4611432673       26.1848847436
  H        -8.6599106525       10.3013053790       27.2139342271
  H        -9.9360938289        9.7294488280       26.1797296063
  C        -3.9791906633       15.1629040086       38.5702951299
  N        -3.8481836709       16.4983675114       38.6041643639
  O        -3.0917890236       18.2141046263       37.2048881375
  S        -4.5407812226       14.3020321483       39.9939770135
  C        -4.1801549944       17.3525640955       39.7042932226
  H        -4.4519126013       18.2830234487       39.2348014964
  H        -5.1195307258       17.1053984999       40.2520478972
  C        -2.9832659574       17.7173354086       40.6192049932
  H        -3.0531596801       18.6260310962       41.1775921628
  H        -2.8618534787       16.8811383094       41.3134815545
  H        -2.0372719171       17.7203741032       40.0216169135
