352
i=
  H         4.7099285712        1.5799676481       12.2908161958
  C         4.0523863736        2.3198373914       12.6388882166
  H         4.7482995195        3.1796683300       12.7829922396
  C         2.9050043659        2.6139341713       11.6492369107
  C         3.5197436004        1.9039017582       13.9747713971
  C         3.4649716694        2.9743848678       10.2850098402
  H         2.3043698020        3.4287236517       12.0308877842
  H         2.1914720925        1.7734434244       11.6891928990
  H         4.3725406954        1.4731163242       14.5099607318
  H         2.7754667897        1.1928966072       13.9002107043
  H         3.1401193768        2.7351015733       14.5608192238
  C         4.2899207095        1.8816807378        9.5725761045
  H         2.8260155993        3.4050560966        9.4941155974
  H         4.1996243593        3.8050121731       10.4195420570
  C         4.9711113715        2.2096878617        8.2267732554
  H         3.4887787484        1.2212492137        9.3316385826
  H         5.0571149215        1.5205320789       10.2292768641
  C         6.2028774231        3.0213229491        8.4807418137
  H         4.2432622423        2.7040846886        7.6185012917
  H         5.0701606853        1.3283558728        7.6287521978
  C         7.3752928070        2.1939479831        8.9641317043
  H         6.4821065547        3.5417507138        7.5845102404
  H         5.9782995533        3.7237744271        9.3071729042
  C         8.7453144391        2.9760984910        9.0489875938
  H         7.4725823007        1.4082243271        8.2505391075
  H         7.1350819054        1.7515069366        9.9129154286
  C         8.5325658656        4.2700110932        9.7871722952
  C         9.1503563578        3.6646208033        7.7612647159
  C         9.9585721042        2.1150594411        9.6816372688
  C         8.6848832102        5.3855064897        8.9754039784
  C         8.0084240144        4.6056189743       10.9976737223
  C         9.1884001404        5.0061166198        7.6735030515
  C         9.7020489329        2.9708908373        6.6828670059
  H         9.6314659436        1.5422126461       10.5369984473
  H        10.1632407423        1.2867391419        8.9917972869
  C        11.2433906948        2.9729708326       10.1415303923
  S         8.3030622419        6.8469338859        9.7747012904
  C         7.8817428684        5.9658736841       11.1709123957
  H         7.7874513061        3.8253285697       11.6693562099
  C         9.6283932637        5.5675063238        6.5125539564
  H         9.6205978721        1.8618224329        6.6704404131
  C         9.9778072979        3.5116558142        5.4962777502
  H        10.9498033812        3.9836255582       10.4173364695
  H        11.9464922236        3.1987308079        9.3851522922
  C        11.9297914558        2.3260455931       11.3828929482
  C         7.6016374835        6.6101166611       12.5010001956
  C        10.0088589308        4.8743170500        5.3679396510
  H         9.6581746846        6.6393498564        6.3871497031
  C        10.4682237482        3.0843428935        4.2742763164
  H        12.8407444055        2.8948086486       11.4614414733
  H        12.3110327669        1.2664442990       11.1269460588
  C        11.1365460865        2.4314098268       12.6663014938
  C         7.6623058350        7.9911970213       12.7172660001
  C         7.4562907965        5.7396318397       13.6500610227
  C        10.4980277262        5.5379762470        4.0504616528
  C        10.7636063139        4.1805185625        3.4199278791
  S        10.8674798282        1.5657238844        3.6370831136
  H        10.7590160208        3.4128848358       12.9918580017
  H        10.2547884176        1.8818577877       12.6290066754
  C        12.0047960891        1.8753814394       13.8054470763
  N         7.8215262261        8.9813368004       11.7152546002
  C         7.3557043768        8.5601733211       13.9161271575
  C         7.2094450194        6.3170234936       14.9269081139
  H         7.2611958515        4.6936355657       13.4861494911
  C        11.6960823391        6.4337153994        4.4081578416
  C         9.4690448744        6.4928940685        3.3566880484
  C        11.3015764710        3.7411283722        2.2146771574
  C        11.2716238451        2.3856252869        2.1694966215
  H        13.0073696179        2.3638449750       13.6215619839
  H        12.0908480248        0.8264063768       13.7724869291
  C        11.6971788044        2.3889965945       15.1808158957
  S         7.8452060283       10.4718886625       12.3149462622
  N         7.4883176664        9.9408047866       13.8243459210
  C         7.0957283043        7.7725617325       15.0986156335
  H         7.1857633090        5.6936476551       15.8101884832
  H        11.4358677537        7.3914098162        4.9964566939
  H        12.1077360472        6.8633782231        3.4902724328
  C        12.7104980165        5.6545929648        5.2148977953
  H         9.0427138795        7.0227823306        4.2275166800
  H         9.9152184163        7.2860912221        2.7022579831
  C         8.3698829955        5.7680377697        2.5567664266
  H        11.4745380574        4.4702131779        1.4226707923
  C        11.6170637221        1.6100094569        0.9216786956
  H        11.6491449295        3.4403353773       15.1651942434
  H        10.6654005838        2.1951011597       15.4546857658
  C        12.4698368984        1.7696371137       16.3349232495
  C         6.9023341301        8.4861907646       16.3512033439
  H        12.4815416635        5.5477676662        6.2839350974
  H        12.7928714255        4.5705884388        4.8869017929
  C        14.1667664932        6.2218805716        5.1748444278
  H         7.8634067124        5.0242782078        3.2106303833
  H         8.8097298479        5.1682591133        1.7906081604
  C         7.1875485817        6.6487434908        2.0252831146
  C        11.5997630059        0.1995238713        0.7838291846
  C        11.9582456848        2.3911716360       -0.2719170569
  H        13.4081549220        1.2202266298       16.1057891553
  H        11.8180809712        0.9900983155       16.6670933253
  C        12.6161029832        2.6883902372       17.5443193098
  H         7.0833806894        9.5372320108       16.1754303755
  C         6.5053546148        8.1674460953       17.6330221915
  H        14.1173330972        7.1706226201        5.6933266184
  H        14.4966422945        6.5370011153        4.1857762894
  C        15.0636438379        5.1714487357        5.8812087776
  H         6.9505449337        7.3237279111        2.8270018228
  H         7.4775267237        7.3570425837        1.1906621798
  C         6.0250116918        5.9246691973        1.5156316994
  N        11.2451338592       -0.7049549588        1.7498777478
  C        11.8906212780       -0.4129157799       -0.4025095642
  C        12.2012491712        1.7725950090       -1.5412756788
  H        12.0148745125        3.4487431348       -0.1742159877
  H        13.0677714992        3.6766881871       17.1955292582
  H        13.2534138582        2.2258070881       18.3077149050
  H        11.6400958524        2.7570988737       18.0847128620
  S         6.2035984928        6.5693088620       18.1708234073
  C         6.4758969332        9.1741776267       18.7471951920
  H        14.6446263598        4.8065719524        6.8342003010
  H        15.3918323399        4.3412816720        5.3321668182
  C        16.4164397577        5.8624808612        6.2246064936
  H         5.6566085829        5.2674085595        2.2568174864
  H         6.1975793583        5.2577787394        0.6937632518
  C         4.8910704643        6.8930453947        1.1346976301
  S        11.2271847969       -2.1947125367        1.0941867258
  N        11.7710824702       -1.7778618025       -0.3388439811
  C        12.2060059725        0.3056481578       -1.6124845808
  H        12.3399504367        2.3806979650       -2.4208131150
  C         5.8571509028        7.2052458693       19.7871557039
  N         6.0449335344        8.5412633561       19.8795129211
  O         6.7574543386       10.3916611435       18.5777507191
  H        16.8955203674        5.9536019959        5.2634648509
  H        16.1778824984        6.9140476456        6.6083979908
  C        17.2492941388        5.0600007717        7.2390976799
  H         5.3299211881        7.5355062350        0.3663686258
  H         4.1153237800        6.3522012240        0.5553538290
  C         4.1957892005        7.4930386783        2.3504535514
  C        12.3693994018       -0.4692528417       -2.7932918740
  S         5.2869141138        6.3792872576       21.2681144290
  C         6.1378507377        9.2143331857       21.1884870108
  H        16.6356547606        4.7219200979        8.0127798437
  H        17.5722638811        4.1424423726        6.7076491895
  C        18.5760726891        5.7670166918        7.6850514243
  H         4.8692416103        7.9688234523        3.0395209663
  H         3.6065519270        6.8190126525        2.9453443788
  C         3.1969022986        8.5342589621        1.9668660010
  H        12.2456092788       -1.5445346529       -2.6611484894
  C        12.6386575433       -0.1498817171       -4.0842535545
  H         5.3219555029        8.9040981668       21.8902219474
  H         5.9001691253       10.2285559971       21.0723126450
  C         7.5152173361        9.1487563699       21.9326823707
  H        19.0339528776        5.1787741021        8.4370780059
  H        18.3687199610        6.7268408769        8.1926301754
  C        19.5092477373        5.9228160063        6.5204584433
  H         2.5889296626        8.1251828083        1.1295729232
  H         2.4956139246        8.7529323381        2.8138408497
  C         3.7636965634        9.8567975160        1.5441865483
  S        13.0257819576        1.4743529785       -4.6571119554
  C        12.9150889282       -1.2572407524       -4.9957397241
  H         8.1446384706        9.6432024292       21.2948551788
  H         7.8616324435        8.0750837026       22.2047450258
  H         7.4960536896        9.7648192496       22.8283930844
  H        20.3839952132        6.4857652123        6.7835245339
  H        19.8287884688        4.9822021137        6.1483762979
  H        19.0766997830        6.4900437767        5.7166203801
  H         2.9372643099       10.5700563071        1.3768772206
  H         4.3941876995       10.2529148408        2.3036089245
  H         4.1966401954        9.7364044616        0.5899134598
  C        13.5436432419        0.6770568050       -6.1628665024
  N        13.4683967712       -0.7259003087       -6.1023243579
  O        12.6664713597       -2.4671835103       -4.7340226558
  S        14.2769526554        1.3980720485       -7.5020069851
  C        13.7667403457       -1.5635412865       -7.2177693605
  H        14.0289068733       -2.5498603133       -6.8689459267
  H        14.6633379980       -1.3426277711       -7.6984150840
  C        12.4461300819       -1.5818476709       -8.0428820804
  H        12.5143625099       -2.1823493670       -8.9155935733
  H        12.2923604891       -0.5966540174       -8.3814961242
  H        11.5999550113       -1.7856611273       -7.4123055544
  H        -4.1296713515       13.2090669804       16.1005289034
  C        -3.0784496049       13.6207654932       16.1583232800
  H        -2.4590776145       12.8505199625       16.5537250205
  C        -3.0534293765       14.8622461883       17.0418459829
  C        -2.6754789484       13.8204034432       14.7494837483
  C        -3.3490883010       14.3081982032       18.4350685214
  H        -2.1068149242       15.4090945322       17.0086688059
  H        -3.7926163898       15.6074571856       16.8085929667
  H        -3.1502770355       13.0965963593       14.0010527456
  H        -3.0965221725       14.7605790789       14.3766006560
  H        -1.5476201177       13.7023191326       14.6472964191
  C        -2.0934232426       14.2337673452       19.3897208068
  H        -3.7310692244       13.2816599357       18.2660900859
  H        -4.1174757365       15.0274346579       18.8754441771
  C        -2.5308726847       13.9061223007       20.8014238802
  H        -1.3660868485       13.5965868354       18.9521910360
  H        -1.7857034411       15.2976202399       19.5177087919
  C        -1.5125718003       13.1040115348       21.7034715441
  H        -3.4345164417       13.2605763107       20.8505569038
  H        -2.6252226099       14.8372203303       21.2896645971
  C        -0.4110063602       14.0874083597       22.2942646662
  H        -1.9687233524       12.5213170825       22.5162627886
  H        -1.1207891903       12.3178412142       21.0347508450
  C         0.7744753341       13.4056277657       23.0139902860
  H        -0.0417169567       14.6767444035       21.5441243515
  H        -0.9628223696       14.7674886083       23.0741812455
  C         1.2227328481       12.0496703677       22.3105484382
  C         0.2910275631       12.5751258720       24.2346785832
  C         2.0573586198       14.3302885361       23.3098047104
  C         1.0076367276       10.9303863290       23.1820900542
  C         1.9746362046       11.6498022975       21.1547969948
  C         0.4260711473       11.2704360411       24.3623974093
  C        -0.1567845879       13.2058269352       25.3822749333
  H         2.0948225642       15.0360963047       22.4682819881
  H         1.5849812258       14.8111778649       24.2444600042
  C         3.3665915877       13.6454929605       23.6770144597
  S         1.5225281460        9.4937108177       22.4953993706
  C         2.0905787242       10.2493519488       21.0696922028
  H         2.3323739518       12.3766425927       20.4425456188
  C         0.0189489279       10.6303693179       25.4482017784
  H        -0.1794788661       14.2495792579       25.5247213948
  C        -0.4323648031       12.4834001068       26.5549710749
  H         3.6099663908       12.9332814573       22.9243699013
  H         3.2453850890       13.2009808184       24.6245360412
  C         4.5852129139       14.5531428700       23.9476711963
  C         2.6451306307        9.5658449131       19.8163519797
  C        -0.3719617710       11.1590566862       26.6356205888
  H        -0.0301835938        9.5414702612       25.3102069094
  C        -0.8381805008       12.7395410583       27.8290071168
  H         5.3611862671       14.0944897601       24.5362904248
  H         4.2635273534       15.4872664289       24.4498682089
  C         5.2646987120       14.9297176912       22.6280655064
  C         2.5649032256        8.1192235515       19.6592253528
  C         3.1475133978       10.3504078049       18.7030169754
  C        -0.6383314116       10.3573498917       27.8377157917
  C        -0.9620355091       11.6194287730       28.6566375913
  S        -1.0853022468       14.1772178305       28.6600564487
  H         5.8820733207       15.8390913380       22.8631529891
  H         4.5513572959       15.1736369229       21.8608794374
  C         6.2599337132       13.8846219985       22.0917986821
  N         2.0809328540        7.2410614770       20.6358221928
  C         2.7865545073        7.5873378744       18.4200495197
  C         3.4258292544        9.7249844223       17.4462777092
  H         3.2682814020       11.3969537163       18.7898723498
  C         0.6356468419        9.6810889430       28.3094210629
  C        -1.8109920769        9.4104566056       27.7273934759
  C        -1.3133895639       11.9389962328       29.9628537063
  C        -1.3221699431       13.3153706563       30.0749044803
  H         7.1875855721       14.3989472923       21.9794018852
  H         6.3285315253       13.0910077282       22.8081828908
  C         5.9658008945       13.2293059865       20.7195669484
  S         1.9856810426        5.7722841770       19.9256296089
  N         2.5731951062        6.1956176345       18.4718310765
  C         3.2411239085        8.2532534134       17.2752419744
  H         3.7865174566       10.3087312199       16.6056407157
  H         1.2148867211        9.4498711455       27.4553585228
  H         0.4469104782        8.7532988980       28.6979083562
  C         1.5984733212       10.5420267817       29.1982424777
  H        -1.5288839230        8.6314880844       27.1081265128
  H        -1.9254339902        8.9162666667       28.7202140808
  C        -3.0932467596       10.0751131064       27.2193115366
  H        -1.4232533206       11.1717421792       30.7703825561
  C        -1.6095553114       14.1238572879       31.3869690261
  H         4.9350987445       12.9854403933       20.6199306470
  H         6.4720154378       12.2158762608       20.7521747960
  C         6.5048465804       13.9826200217       19.5551805109
  C         3.4203936386        7.4724448697       16.0601722134
  H         1.8228556596       11.5148188877       28.7037106025
  H         1.3357550091       10.5693940645       30.2377570421
  C         2.9335503650        9.7737060481       29.3311162699
  H        -2.9019902520       10.2941556725       26.1951605804
  H        -3.3410795376       10.9406907011       27.7656739934
  C        -4.3108774870        9.1329668189       27.4099328683
  C        -1.6477721975       15.5621838228       31.4301864244
  C        -1.9510539874       13.3172590961       32.6082275657
  H         5.8293602200       13.8078485245       18.6923923814
  H         6.4797257818       15.0277163758       19.8381314147
  C         7.9577961995       13.4750326075       19.2752447605
  H         3.1797048213        6.4060684810       16.1082607075
  C         3.7917958262        7.8303149800       14.7859496262
  H         3.1874960397        9.4346611322       28.3597185511
  H         2.8521773244        8.8350282019       29.8837359164
  C         4.0602435854       10.7335784730       29.7221061715
  H        -4.2266424893        8.3072918873       26.7308773710
  H        -4.2388069893        8.7785171061       28.4347113834
  C        -5.5898121767        9.8835799728       27.2293252902
  N        -1.5485352064       16.4704842352       30.4315436619
  C        -1.9072152864       16.2210170104       32.6374036952
  C        -2.2496096114       13.9963835536       33.7666971874
  H        -1.8831080438       12.2629319945       32.6188071459
  H         8.5030333042       14.3954155670       19.4139177768
  H         8.3292058532       12.8134394159       20.0452217271
  H         8.1329806699       13.0032204736       18.3187479318
  S         4.2575945562        9.3351716438       14.2204747427
  C         3.8085005636        6.7514895075       13.7521138882
  H         4.2663352649       11.4700982736       28.9211602585
  H         3.7404127295       11.3413521308       30.5472221033
  C         5.3625622655       10.1035785828       30.0913660918
  H        -5.6897294947       10.9145287503       27.5643554837
  H        -6.4373553943        9.3169727006       27.7104999723
  C        -5.8457244202        9.9580243363       25.7389716714
  S        -1.5270229192       17.9624660640       31.0194769768
  N        -1.9154042521       17.6077227546       32.5626613776
  C        -2.2314139022       15.4817674282       33.8487443694
  H        -2.4609690413       13.4439441712       34.6910781852
  C         4.1801286122        8.6123066519       12.5443581798
  N         4.1071099198        7.2797999806       12.5245322099
  O         3.5845214299        5.5299967166       13.9859332962
  H         5.9811412913       10.8156986352       30.5471324828
  H         5.8642996093        9.7999448682       29.1356581910
  C         5.2573609967        8.9533196363       31.0576921333
  H        -4.9697828571       10.3381052371       25.2551582049
  H        -6.0636367766        8.9531130335       25.4056074344
  C        -7.0211747112       10.7534896108       25.3375787359
  C        -2.6670946188       16.2658306216       34.9982407512
  S         4.5535163827        9.4069130778       11.0226259850
  C         4.0459576089        6.4210268639       11.3301534946
  H         6.1618131420        8.9215981679       31.6421267811
  H         4.3997285106        9.1204187080       31.7445319995
  C         5.1867803431        7.5454108524       30.4559438658
  H        -6.9013124919       10.8705038886       24.2923349508
  H        -7.0312156393       11.6860202188       25.8040126560
  C        -8.3106461450        9.9431644287       25.6279376197
  H        -2.4280006197       17.3267620435       34.9411419524
  C        -3.2761508692       15.9548163859       36.2014803468
  H         4.6817154875        6.8444406792       10.5081488719
  H         4.5941981952        5.4961305359       11.6470275236
  C         2.5905071196        6.2126647861       10.9722535356
  H         5.3370896257        7.4055838608       29.4539253323
  H         4.1221226420        7.2252171013       30.5571463488
  C         6.1854052621        6.4983943455       31.0834719978
  H        -8.5893307208        9.4166610783       24.6962758256
  H        -8.0550262648        9.1586063919       26.3724598753
  C        -9.5315686028       10.7350133015       26.1579628592
  S        -3.8784643700       14.4304404544       36.7256055992
  C        -3.4287208154       17.0729923259       37.1815917296
  H         2.1010637659        7.1859204751       10.9378991197
  H         2.5851974339        5.8047905729        9.8664327240
  H         2.0110912971        5.5111332622       11.6062130059
  H         6.2486664600        6.7586393714       32.1400940279
  H         7.1391116167        6.2926352386       30.6263601231
  H         5.7308786960        5.4821636277       31.0701016109
  H        -9.3595753960       11.1259064402       27.1754094404
  H       -10.3915789112       10.0496390823       26.1155475064
  H        -9.6681297884       11.5349342290       25.5169081595
  C        -4.2816798074       15.1863049411       38.2121184458
  N        -4.0516512889       16.5139997021       38.2872185560
  O        -3.2306321796       18.2856642054       36.9828281532
  S        -4.8401736944       14.3917327903       39.6737746551
  C        -4.1785289434       17.3117583246       39.5058012419
  H        -4.3260848687       18.3619666873       39.1815104170
  H        -4.9657331127       16.9872798135       40.1526653614
  C        -2.8393082629       17.1471793096       40.3038580868
  H        -2.9173623109       17.7497089526       41.1998128588
  H        -2.7308027534       16.2104496604       40.6986183334
  H        -2.0841332472       17.4611200017       39.6037548766
