352
i=
  H         4.4172504042        1.0179803879       12.2892109525
  C         4.0033966675        2.0036364135       12.4429742472
  H         4.9294569859        2.5446016507       12.4396704409
  C         3.3698390511        2.5204628833       11.1368767941
  C         3.0941489975        2.1506102455       13.6516047416
  C         4.4703400999        2.9677184121       10.1005216321
  H         2.8208008060        3.3904426852       11.4292244480
  H         2.8600262719        1.6408144560       10.7498802167
  H         2.0652869527        1.7109206076       13.7296436045
  H         3.1992007686        3.2208486107       13.9994077784
  H         3.6054462646        1.6420162807       14.5137970807
  C         5.3990487800        1.7655106899        9.6955182459
  H         4.0019964441        3.3650451946        9.2698069608
  H         5.0327530210        3.7794433666       10.3748543114
  C         6.2157123298        2.0047194320        8.4059587204
  H         4.7008758746        0.9849783522        9.5314812215
  H         5.9718233998        1.5354439013       10.5262173570
  C         7.4055831962        3.0052736164        8.5735449574
  H         5.5422102665        2.4492287844        7.6305489086
  H         6.5583009485        1.0406038932        8.0314440154
  C         8.7419968014        2.3266104428        8.9434762091
  H         7.5436410623        3.6206172383        7.7259209125
  H         7.1558031993        3.7871863419        9.2489312059
  C         9.9538381253        3.2615014472        9.2026853185
  H         9.0101542361        1.4033719946        8.3944086303
  H         8.3935313870        1.8112691926        9.8607711974
  C         9.5627739589        4.6420501314        9.8632522555
  C        10.3169090680        3.9669612383        7.9422197917
  C        11.1894699172        2.6401713005        9.9014599292
  C         9.6604654771        5.7269742922        9.0313694634
  C         9.0202248464        4.9643104983       11.0561985573
  C        10.2138082904        5.2905514003        7.7946768869
  C        10.6957106198        3.3422576293        6.8103033451
  H        10.9019519956        2.3992047743       10.8964820216
  H        11.4647491261        1.7131756856        9.4588229481
  C        12.3151835426        3.7474806947       10.1240723922
  S         9.2513829473        7.1824555497        9.7340075282
  C         8.6747145914        6.2881823728       11.1501692852
  H         8.7932179956        4.1939224657       11.7912568151
  C        10.5009201385        5.9006950375        6.6032453806
  H        10.7876265263        2.3154395503        6.9363393614
  C        10.9971860933        3.8852692305        5.6121117307
  H        11.8645348965        4.5725199871       10.6187541198
  H        12.7066852738        3.9771582196        9.1087430406
  C        13.5531439620        3.2709005831       10.8751685191
  C         7.9470121282        6.9323254267       12.3269526901
  C        10.9632508224        5.2184449699        5.4365389173
  H        10.4665962467        6.9993397469        6.5642443215
  C        11.2949705031        3.3970929382        4.3457104473
  H        14.3663291559        3.7977734158       10.4325620836
  H        13.7874430658        2.2227131766       10.7431658114
  C        13.4010416422        3.6151104576       12.3657936892
  C         8.0289287516        8.2557670196       12.7214411083
  C         7.2542158562        6.0577926103       13.3387732779
  C        11.2994721234        5.8160444156        4.1015791636
  C        11.5139940479        4.4716834277        3.4473477561
  S        11.4738556276        1.7940448576        3.6997662654
  H        14.3613024605        3.9489111658       12.8064843659
  H        12.7358025081        4.4993138551       12.6014673153
  C        12.9631768904        2.4151997271       13.1586362966
  N         8.4659412187        9.2598935300       11.8916907123
  C         7.6366365809        8.7452730681       13.9653515045
  C         7.0878180034        6.5699117367       14.6160137561
  H         6.8401623082        5.0622594737       13.0439050670
  C        12.6095649642        6.5747536138        4.0989982975
  C        10.0774794604        6.5945533129        3.4955670642
  C        11.9873662205        3.9803084221        2.2200290110
  C        12.0273358483        2.6162615572        2.1371686704
  H        13.6802566390        1.5420806004       13.0483365894
  H        11.9935226208        2.1518273073       12.8836959363
  C        13.1168025842        2.7399968288       14.6458981367
  S         8.4133927145       10.7520967270       12.6604799194
  N         7.9148316884       10.1086540581       14.1156171610
  C         7.2990216113        7.9785828478       15.0012810086
  H         6.5311143640        6.0509000020       15.3686061397
  H        12.4267075778        7.4058263305        4.7652378393
  H        12.8030992973        7.1052070297        3.1210737531
  C        13.7788816062        5.7634565526        4.7048241683
  H         9.7159065814        7.3393064514        4.1891016723
  H        10.4215029400        7.0516949381        2.5883101643
  C         8.8787339270        5.7291122955        3.0411940088
  H        12.2884352913        4.6386053053        1.4388500605
  C        12.2166630617        1.7968701726        0.9011023323
  H        14.1878492158        2.7563480038       14.8738628675
  H        12.5722144874        3.7126862645       14.7257762117
  C        12.4754101876        1.7541448796       15.5981103288
  C         7.1055071354        8.5827014432       16.3288437409
  H        13.5021330907        5.2635576914        5.5808528739
  H        14.0751502068        5.0147679829        3.9709594584
  C        14.8938390106        6.7094598461        4.9758157836
  H         8.5435810172        5.1353197305        3.8051834954
  H         9.2171947923        5.0564189159        2.2350502168
  C         7.7419836486        6.5499934624        2.4503358097
  C        12.2342729139        0.3989985164        0.7269914989
  C        12.4731174764        2.5426777698       -0.3711673874
  H        12.7779445206        0.7075294005       15.3819688821
  H        11.4380458901        1.7815682509       15.5576727207
  C        12.8130814776        2.0927669101       17.0449768968
  H         7.2396552290        9.6083244141       16.2869969532
  C         6.8768232252        8.1295961089       17.5700963638
  H        14.7293280068        7.0984548164        6.0031330620
  H        14.9150869895        7.4588394163        4.1685893526
  C        16.1978576344        5.9930868264        5.0689167080
  H         7.5113347983        7.3395993410        3.1278825478
  H         8.0324317162        7.0380722447        1.5695016003
  C         6.3674828451        5.7469670239        2.2575605498
  N        11.9937975898       -0.5319052153        1.7476787921
  C        12.4693332825       -0.2549059965       -0.4913785861
  C        12.8186861985        1.9234384853       -1.5522255510
  H        12.3339803834        3.6191385019       -0.3383285548
  H        12.8017961320        3.1044552470       17.2995637409
  H        13.7843347909        1.5545024006       17.3428182883
  H        12.0898698736        1.5947317412       17.6674068100
  S         6.5921536028        6.4807529569       18.1207193403
  C         6.8080505530        9.1639850715       18.6333617590
  H        16.0230096150        4.9400672906        5.3429838514
  H        16.6541033962        5.9654327576        4.0801911654
  C        17.2600833936        6.6866294358        6.0105123683
  H         6.1011220858        5.3129039595        3.2651142211
  H         6.6113627411        4.8696271865        1.6271384003
  C         5.3526747625        6.5906912436        1.5068511112
  S        11.8812163508       -1.9952072565        1.1287231701
  N        12.4243632512       -1.6119364937       -0.3704289356
  C        12.8299643741        0.4449069299       -1.6968284132
  H        13.0680951709        2.5727503549       -2.4051249836
  C         6.5087131376        7.1627076549       19.7924075120
  N         6.5733851604        8.5468697687       19.8274886583
  O         6.9704172454       10.3975710977       18.4999537024
  H        17.9524312673        7.3074376579        5.3598942339
  H        16.9365623159        7.5130086382        6.6256884757
  C        18.0095967547        5.5773978864        6.7395934547
  H         5.9595048440        7.1948570915        0.8106247974
  H         4.6863935552        5.9920859507        0.9031892651
  C         4.4662590084        7.3845042928        2.4857300444
  C        13.1243693017       -0.3536391126       -2.8290653499
  S         6.1457292473        6.3407801732       21.3161907120
  C         6.4143677159        9.3540105120       21.0230263076
  H        17.2883664257        5.3398407629        7.5387723669
  H        18.2736018787        4.7180467130        6.2035369996
  C        19.2918750043        6.0680070336        7.4432569501
  H         5.0231488317        8.0132085159        3.1832583915
  H         3.9177576378        6.6443258441        3.1203174303
  C         3.4283594227        8.3083933950        1.8046914359
  H        12.7807454668       -1.3779618263       -2.6934563965
  C        13.7613956540       -0.0289199043       -3.9689444679
  H         5.7271924504        8.9170501939       21.7253708353
  H         5.9975519732       10.2781210037       20.8905142031
  C         7.7617220422        9.5522428723       21.7078017698
  H        19.5432546274        5.4254227790        8.2597051060
  H        19.0758613538        7.0576332912        7.9155498808
  C        20.5103179423        6.2479046786        6.5248123864
  H         3.3276359598        7.9651190785        0.7583193199
  H         2.4376381828        8.0703904284        2.3113200836
  C         3.7449004198        9.7277263771        1.9601860726
  S        14.3751250423        1.4966133619       -4.4649613698
  C        13.8528876499       -1.1481531699       -4.8916844802
  H         7.7709995150       10.5007217632       22.3726418793
  H         8.5996263699        9.7304584066       20.9687370124
  H         7.9694354493        8.7446548266       22.4115284242
  H        21.3201616928        6.8538803321        6.8944941708
  H        20.9605481531        5.2625079147        6.4758217530
  H        20.3226407372        6.6144887559        5.5658563196
  H         3.5440272348       10.0663714838        2.9879282039
  H         4.7080751653       10.0795340185        1.6384668476
  H         2.9461761688       10.3179440533        1.5069513907
  C        14.6365364864        0.6716939495       -6.0110695044
  N        14.3828541097       -0.6661990190       -6.0016539801
  O        13.3462155297       -2.2846382046       -4.7138790883
  S        15.2423865969        1.2931048541       -7.5784666136
  C        14.5576505713       -1.6290781428       -7.0941791009
  H        14.9251187305       -2.5870839036       -6.7110836110
  H        15.2980577452       -1.3482123033       -7.7548961506
  C        13.1895282556       -1.7187298908       -7.8499994897
  H        12.9724849029       -0.7398661406       -8.2249739892
  H        12.3329802536       -1.9359927166       -7.1911159239
  H        13.0940669052       -2.4698711244       -8.6448201802
  H        -3.4497545348       14.8676707491       16.8507560183
  C        -2.9835047781       14.0411579893       16.4296285911
  H        -3.7947090810       13.3143871320       16.5439781661
  C        -1.9600178046       13.6441947198       17.4057069906
  C        -2.4781510924       14.0666713503       14.9835283365
  C        -2.4552298334       13.8644725792       18.8882903341
  H        -1.6998984682       12.6351714644       17.2011262597
  H        -1.1258588008       14.3326143208       17.1341091645
  H        -1.5300588808       13.5533908563       14.9062857253
  H        -3.1292827384       13.5019918814       14.2798071254
  H        -2.3674953595       15.0295869298       14.5592330666
  C        -1.4026988165       13.5403148738       19.9803601297
  H        -3.2862265385       13.1212222613       19.0514443716
  H        -2.7563855521       14.9027603535       19.0145275525
  C        -2.0503456675       13.2178157198       21.3752268456
  H        -0.8000433451       12.6408495123       19.8133880486
  H        -0.7324325627       14.3708633587       20.0350171346
  C        -1.0582007825       12.7323289282       22.4649019711
  H        -2.7864552831       12.4674998115       21.2311914369
  H        -2.4955935056       14.0976527396       21.8663081105
  C         0.1743319418       13.7119593407       22.6213114495
  H        -1.5249456857       12.6444811926       23.4539068841
  H        -0.6800299582       11.7579922259       22.2355328668
  C         1.3361845168       13.0661186934       23.4838933362
  H         0.6084658079       14.1598490573       21.7970585642
  H        -0.1140284283       14.5904885164       23.2006390908
  C         1.8164283763       11.7502546172       22.8532824033
  C         0.8842146527       12.3277977305       24.6494940069
  C         2.4487791694       14.0018078040       23.8203710835
  C         1.5095380476       10.6185738331       23.6016118682
  C         2.4022866688       11.4299449624       21.6178970236
  C         0.8918651710       10.9845150307       24.7176447780
  C         0.3348562339       12.9431603794       25.7784550499
  H         2.5964560736       14.6028556215       22.9562490462
  H         2.0300104031       14.7644598430       24.4969895061
  C         3.8001063494       13.3137864890       24.2259029899
  S         1.8471363277        9.1226773922       22.8487421490
  C         2.4734393537       10.0591889867       21.4448757289
  H         2.7262473373       12.2188737001       20.9655197057
  C         0.4212285833       10.3521331156       25.7741280926
  H         0.5565114371       14.0074684816       25.8902650199
  C         0.0409737172       12.2602594819       26.9403074259
  H         4.0451949058       12.4954699657       23.5165433065
  H         3.5814126822       12.7950692750       25.1614970277
  C         4.9482122240       14.3529188943       24.4812502319
  C         2.9761719658        9.4349201376       20.1830367888
  C         0.0693239193       10.9047847316       27.0194088022
  H         0.4375251658        9.3516832378       25.7499875208
  C        -0.3344942785       12.6048755064       28.2172783594
  H         5.6802842759       13.8151793294       25.1325647944
  H         4.6208001202       15.1125423321       25.1404099939
  C         5.5480896625       14.9898043113       23.2799895042
  C         2.9600258775        8.0322463109       19.8715400663
  C         3.2218837433       10.3341841914       18.9988780507
  C        -0.2876357779       10.1245009242       28.3067443037
  C        -0.4598440974       11.4993637866       29.0269126875
  S        -0.7186269806       14.0895981216       29.0108564107
  H         6.2677677757       15.7127062360       23.5933313385
  H         4.8673866422       15.6772160654       22.7324373204
  C         6.2156562965       13.9727628470       22.2645410243
  N         2.7067166039        6.9671330246       20.7370900947
  C         3.2708169127        7.5374653362       18.5866296697
  C         3.5334260301        9.8110782076       17.7125272564
  H         3.3017680822       11.3995515659       19.1218258556
  C         0.9249806508        9.3258525057       28.9047254476
  C        -1.5178215431        9.2360768852       28.1673155525
  C        -0.9184122185       11.8290860281       30.2863317875
  C        -0.8798602766       13.1554625531       30.5209476199
  H         7.3679032635       14.1910574969       22.2224440763
  H         6.1878483878       13.0026075750       22.6644504055
  C         5.5711452237       13.8296594644       20.9424443158
  S         2.8449894720        5.5747588326       19.9837314571
  N         3.2395779761        6.1543433605       18.5400019586
  C         3.4722410859        8.3296348907       17.4763146176
  H         3.7284892742       10.5389057080       16.9889638825
  H         1.4015241063        8.7091282737       28.0825914618
  H         0.5905991854        8.6207380282       29.6922557461
  C         2.1299277609       10.1500867484       29.3879749652
  H        -1.3632101421        8.5380870458       27.4012116399
  H        -1.6870170805        8.7996865717       29.1191124303
  C        -2.7099296970       10.1063984137       27.7307027071
  H        -1.0908325095       11.0436508854       31.0301797534
  C        -1.2638120015       13.8061092154       31.8062365643
  H         4.8854658563       14.6272594931       20.6829907691
  H         5.0134476989       13.0002550755       21.0471857212
  C         6.6335793756       13.6003319883       19.8899201516
  C         3.5446499885        7.6911618428       16.2425599455
  H         2.4896676310       10.7512024753       28.5126825612
  H         1.8808233644       10.7948369437       30.2061744197
  C         3.3564006475        9.4033029214       29.8532838700
  H        -2.5554620112       10.6044412197       26.7473163276
  H        -2.8474022993       10.8247565681       28.5114430583
  C        -3.9468025669        9.2959912384       27.7144737696
  C        -1.3549783271       15.2096242693       32.0594076171
  C        -1.4017292494       12.9419008847       33.0827667268
  H         7.2755153781       14.4410604172       20.0245418632
  H         7.2141084635       12.7251396386       20.2581124619
  C         6.1402297124       13.5151439187       18.4865491328
  H         3.5688269654        6.6036134569       16.2622251497
  C         3.7500275278        8.1050642133       14.9314257043
  H         3.8195283235        8.8207116257       29.0747717009
  H         3.1537288472        8.6813390055       30.6290675656
  C         4.4158517429       10.4137038546       30.4589109742
  H        -3.6313999494        8.4984173391       26.9937435246
  H        -4.0048439302        8.8574727402       28.7437229606
  C        -5.2108829346       10.0346786129       27.1757339735
  N        -1.2099648821       16.2485138769       31.1128090318
  C        -1.5774712071       15.7449147247       33.3523795809
  C        -1.7306520761       13.4867732248       34.2901511386
  H        -1.2352646118       11.9270643624       33.0333790477
  H         5.2178609495       13.0273759228       18.3561340259
  H         5.9274984728       14.5680018868       18.1976613358
  H         6.8188923425       12.9929320204       17.8162271173
  S         4.1079264748        9.6874297237       14.5362124514
  C         3.9088911445        7.1095467643       13.8455191686
  H         4.4785849235       11.3308377426       29.7914312526
  H         4.1131693548       10.8006783331       31.4465539290
  C         5.8770816740        9.8749007708       30.5685825979
  H        -5.3245295073       11.0026871404       27.6227638181
  H        -6.0901167997        9.4852945705       27.4506443700
  C        -5.2199970748       10.2271149097       25.6451371698
  S        -1.2262745117       17.7083305896       31.8410618567
  N        -1.6504875060       17.1640940587       33.3296301444
  C        -1.8902253456       14.9664084463       34.4457175108
  H        -1.8468843614       12.8543190218       35.1825905763
  C         4.3687116605        9.0932637329       12.9353568005
  N         4.3489994922        7.7812978844       12.7715670885
  O         3.7591347745        5.8959710509       13.9430966650
  H         6.5733404867       10.6333941259       30.9950820142
  H         6.3039773760        9.6771157255       29.5954590360
  C         5.9582273328        8.6394637038       31.4958572639
  H        -4.4017695434       10.8847137633       25.3619452343
  H        -5.0749921272        9.2785041682       25.1337998840
  C        -6.5148339978       11.0783417193       25.3140672960
  C        -2.1782070799       15.6873765097       35.6252627284
  S         5.1220864791       10.0531758202       11.6608001009
  C         4.6142235287        7.1975876845       11.4729612883
  H         6.7521309692        8.7791074794       32.0787372731
  H         5.1606291006        8.7410728006       32.2017897546
  C         5.9811218965        7.2577316818       30.8083065321
  H        -6.3644841153       11.6514089756       24.4129005858
  H        -6.7345296606       11.7497879346       26.0945112623
  C        -7.6589657441       10.0469253354       25.0574249352
  H        -2.0636550576       16.7612644469       35.5513654895
  C        -2.7152141748       15.3606237046       36.8395134103
  H         5.5595633146        7.6435052869       11.0774028165
  H         4.8642381866        6.1854006946       11.6722459714
  C         3.3826930903        7.2916696335       10.5957545929
  H         6.4255543287        7.3552268374       29.7968847465
  H         5.1018626059        6.7318871107       30.6500219130
  C         7.0239828482        6.3420907056       31.5058580311
  H        -8.1103694696       10.1363006863       24.0478389101
  H        -7.3446516901        9.0269653139       25.0570586203
  C        -8.7466113345       10.1058110804       26.1530108274
  S        -3.3706074605       13.8522001657       37.1558336052
  C        -2.8292110997       16.4060444085       37.9110125025
  H         2.7307642148        8.0236183014       10.9473623586
  H         3.6084669778        7.5273076838        9.5762328658
  H         2.8305823051        6.3437687147       10.5579397271
  H         8.0800948334        6.7281272116       31.5045442914
  H         7.1714217033        5.3398309409       31.1171282971
  H         6.7892723942        6.2788159262       32.5552903579
  H        -9.3121901072        9.1722537442       26.2035213428
  H        -9.4902915299       10.8985108674       26.0013547976
  H        -8.2905008633       10.3541441622       27.1951098312
  C        -3.7309679937       14.5210848368       38.7164728153
  N        -3.4559995459       15.8266406936       38.9171137720
  O        -2.2853926769       17.5529052892       37.8791195414
  S        -4.3999667447       13.6005803538       40.0121978312
  C        -3.5540503028       16.5360044088       40.2094216090
  H        -3.7001142897       17.6343136535       40.0507465275
  H        -4.4995504579       16.2190322503       40.6956252474
  C        -2.3346350733       16.2044785414       41.0762328016
  H        -1.6614142524       15.6977722432       40.4842519736
  H        -1.8789577869       17.0779969305       41.5144162213
  H        -2.7067436517       15.6693266074       41.9560529983
