352
i=
  H         2.4920404268        2.8453488451       13.8153653068
  C         3.0665161076        2.3915010665       13.0786994482
  H         2.8396249005        1.3051837773       12.9579647087
  C         2.8106057278        3.1340809890       11.7265532452
  C         4.4676325310        2.4814504459       13.5075062683
  C         3.9626840384        3.1335053543       10.6387042455
  H         2.4642080366        4.1795969494       11.8909770944
  H         1.8872647429        2.7353391170       11.2919706910
  H         4.7414555820        3.5277749684       13.7404971835
  H         5.1463856240        2.0881961356       12.7677839942
  H         4.5490901274        1.8831855511       14.4816896170
  C         4.3627974494        1.7406864427       10.1187041253
  H         3.6040271316        3.7882001802        9.8696348416
  H         4.8369517618        3.5297673334       11.0304719280
  C         5.0117164892        1.6384025824        8.6841482850
  H         3.5253578203        1.0742477146        9.9367266005
  H         4.8870204327        1.1072420373       10.8007627116
  C         6.3190687890        2.4155145916        8.5731301195
  H         4.3008384812        2.0180929273        7.9207928082
  H         4.9802339518        0.5929156480        8.5062742406
  C         7.6716097476        1.8308751756        8.9971137557
  H         6.4991914833        2.8349507821        7.5908589190
  H         6.0939475404        3.2540932635        9.1887342777
  C         8.9237417377        2.7147372960        9.1957277196
  H         7.9196055262        1.1026139380        8.2261655688
  H         7.5670214040        1.2847735611        9.9076620744
  C         8.5221819288        4.0549833476        9.8361127809
  C         9.4143214834        3.3950317686        7.9800953516
  C         9.9881923121        1.8868079595        9.8327097025
  C         8.8044129229        5.1528126112        9.0331394207
  C         7.8684805956        4.3968150814       11.0295387567
  C         9.3010727017        4.7246356716        7.8352389163
  C        10.0712284351        2.7744638073        6.9307034944
  H         9.6024114550        1.3204830699       10.6396677150
  H        10.4730428279        1.1646753672        9.2254269508
  C        11.2140596680        2.7584331531       10.1942673650
  S         8.4538146114        6.6376419253        9.8394668640
  C         7.8433094418        5.7657570790       11.2116405290
  H         7.5383121991        3.6675478562       11.7851024986
  C         9.7009953345        5.3563798623        6.6929031613
  H        10.0535736278        1.7386179797        6.9308518838
  C        10.4393502478        3.3872685520        5.7468160260
  H        10.7028888371        3.6813330113       10.6260457997
  H        11.8337812775        3.0542204882        9.3273924247
  C        12.0653040113        1.9279500156       11.2495533893
  C         7.3779966475        6.3762877212       12.4583289101
  C        10.3310366213        4.7370807180        5.6394019731
  H         9.7557112955        6.4137382678        6.6208806448
  C        10.9234334964        2.9780247114        4.5182266353
  H        13.1413706145        2.0498818528       10.9999712448
  H        11.6890691911        0.8270463632       11.3310768910
  C        11.9954437913        2.5553822237       12.6417244821
  C         7.3578835522        7.7996006538       12.7389874923
  C         6.8808461869        5.5263466043       13.5587149057
  C        10.9344596941        5.4823911633        4.4063142077
  C        11.2386778431        4.0622420484        3.7539284995
  S        11.2268839124        1.4498388101        3.8618137920
  H        12.8323662685        3.1420715490       12.8277248303
  H        11.1313304520        3.2117998161       12.6447325417
  C        11.8195228543        1.5380983537       13.7547866114
  N         7.8221855265        8.7430437948       11.8009059472
  C         7.1867911543        8.3212884475       13.9940899055
  C         6.5992412399        6.0627617097       14.8291024843
  H         6.6500327221        4.4807910250       13.3617697672
  C        12.2558969221        6.1618488879        4.7305410304
  C         9.9154480695        6.2557990073        3.6649619332
  C        11.7382951058        3.5837101225        2.5042234696
  C        11.6860585326        2.2193498101        2.4040490435
  H        12.3221196660        0.5942065810       13.5519136087
  H        10.7518371629        1.4304299215       13.7776177625
  C        12.2694050203        2.1253392055       15.1208084568
  S         7.8280998414       10.1863375679       12.5882222671
  N         7.3585849491        9.6544954928       14.0696730385
  C         6.7799392851        7.4884344052       15.0650321860
  H         6.1607211106        5.4922520277       15.6296478934
  H        12.1487693630        7.0324296502        5.3579195499
  H        12.7658190576        6.4787854629        3.8514303902
  C        13.3518655327        5.1924376327        5.2938897948
  H         9.4278477748        6.8802819839        4.4416844985
  H        10.4154704109        7.0390137256        2.9375765455
  C         8.8326567303        5.4898259085        2.9587844743
  H        12.0249637397        4.2970696794        1.7535712597
  C        11.8121943771        1.4087160094        1.1051814746
  H        13.1854873653        2.7432661759       15.0362462062
  H        11.5764206183        2.7940841253       15.5815322253
  C        12.6227453452        0.9951879178       16.1363584828
  C         6.4759073796        8.1071586029       16.3374861026
  H        13.0324445342        4.6621707722        6.1677638304
  H        13.4774858650        4.4662092290        4.4255377102
  C        14.6635869403        5.8777091744        5.4524746941
  H         8.4858035053        4.7367668754        3.6312027778
  H         9.2703127998        5.0718388768        2.0268668234
  C         7.6987098891        6.4042701958        2.4416234734
  C        11.7277761521        0.0314253124        0.8686717494
  C        12.1696293978        2.1600701894       -0.1425810913
  H        13.5098555630        0.4061483050       15.7919573702
  H        11.8449740120        0.2848795422       16.2100841012
  C        12.9306056388        1.6153605395       17.5497830444
  H         6.4443134729        9.1061541197       16.3440675216
  C         6.3225233254        7.5988876712       17.6124280047
  H        14.5873603097        6.7992566434        6.0368320509
  H        15.0364499144        6.2221025993        4.4565106928
  C        15.6880092929        5.0721132380        6.2164779561
  H         7.2104663117        6.8811830319        3.3513857940
  H         8.0588231932        7.2746661825        1.8851455837
  C         6.6610452294        5.6326783742        1.6351959506
  N        11.4864863541       -0.9079073642        1.8626337992
  C        12.0020876087       -0.5292501298       -0.3710704853
  C        12.4124532937        1.5556768825       -1.3189400437
  H        12.2500293849        3.2480815729       -0.0757332685
  H        12.1001084126        1.5307322776       18.2106840722
  H        13.4029318072        2.5204551069       17.4522517698
  H        13.6648925266        1.0466421663       18.0667728667
  S         5.9614987853        6.0634141441       18.2367680543
  C         6.4777327224        8.6357435458       18.6770870336
  H        15.3102498944        4.9638522459        7.2261417456
  H        15.8204795874        4.0035547488        5.8272162189
  C        17.0195078470        5.8143877683        6.2896011688
  H         6.2462376038        4.8138375331        2.2391371819
  H         7.1368878460        5.0797594677        0.8005320513
  C         5.5869623004        6.5822899385        0.9588054969
  S        11.6569918917       -2.3654501616        1.0980621444
  N        12.0102823085       -1.9404746941       -0.3259202556
  C        12.2376199759        0.1433921982       -1.5211657311
  H        12.5108829983        2.2572713111       -2.1710293368
  C         6.0730481131        6.7208200288       19.8055680154
  N         6.2406018875        8.0807411717       19.8734769922
  O         6.8176488717        9.7999746166       18.5593964907
  H        17.2339654479        5.9679258202        5.2230910358
  H        16.7385709437        6.8262625326        6.6100024252
  C        18.0597290591        5.2400586050        7.2735154618
  H         6.1493649050        7.4475695267        0.4658589307
  H         5.0495489451        5.9021332601        0.2843057538
  C         4.5299191844        7.0314090642        1.9728243721
  C        12.6287404100       -0.6104656465       -2.6664607159
  S         5.7065069403        5.8769810081       21.2538330881
  C         6.3356136337        8.7639328004       21.1347799178
  H        17.5949285682        5.1314075873        8.2495146939
  H        18.3173166836        4.2857463663        6.8383229237
  C        19.3316955840        6.0796606374        7.4487490492
  H         4.8864419943        6.8757612302        2.9701232014
  H         3.5335791805        6.6017565542        1.8262634415
  C         4.3685666858        8.5244856841        1.6758502386
  H        12.1809210269       -1.5535001504       -2.8047532136
  C        13.2615769454       -0.2692744035       -3.8072044939
  H         5.7596538018        8.2500530200       21.8863698197
  H         5.8697055919        9.7604253714       21.1350664026
  C         7.7452730339        8.9618278234       21.5896855158
  H        19.8607825285        5.8651068349        8.3310307766
  H        18.8994033021        7.1166107916        7.4434370723
  C        20.2577262275        5.9995301713        6.2276761973
  H         5.2813834392        8.9933932419        2.0321405608
  H         4.2002673118        8.6752560517        0.5841690142
  C         3.2486980435        9.1033364592        2.4292520331
  S        13.9323076435        1.3049138647       -4.2354311277
  C        13.3430256772       -1.2490090066       -4.9147065271
  H         8.4032249266        8.1375352607       21.2533176236
  H         7.9073072314        8.9112444100       22.7043060240
  H         8.1543018524        9.8827075495       21.2204763881
  H        20.9693594442        5.1871027911        6.3462785436
  H        19.7333650680        5.8925346124        5.2412052078
  H        20.7925232056        6.8920650237        6.0728882114
  H         2.3587749696        8.8415390079        1.9367387015
  H         3.1406159739        8.7441956404        3.4341733852
  H         3.2979359680       10.1305133952        2.6294526807
  C        14.5039474279        0.5308446006       -5.7231850769
  N        14.0700684577       -0.7405631527       -5.9076163897
  O        12.9868954064       -2.4452724049       -4.9318516928
  S        15.2911796738        1.3389430756       -7.1170334901
  C        14.2772411054       -1.4565677659       -7.1323418420
  H        14.4627648377       -2.4742138609       -6.9664682173
  H        15.2013103582       -1.1911132818       -7.6880801097
  C        13.0863002751       -1.3450624051       -8.0893318026
  H        12.1413503108       -0.8745867362       -7.7269890084
  H        12.8753242852       -2.3850812857       -8.4658840642
  H        13.4036443060       -0.7961678130       -8.9759481116
  H        -2.4116400759       12.3007402038       17.0785949201
  C        -2.3963908713       13.2365695318       16.4013335975
  H        -1.3683635473       13.4365637383       16.0599453803
  C        -2.5124715225       14.3880069740       17.3615698587
  C        -3.3207695171       13.0532072577       15.1830595107
  C        -2.7491818381       13.9189215551       18.8566314287
  H        -1.6594385046       15.0791695389       17.2192154240
  H        -3.3492514687       14.9813708369       17.1302353172
  H        -3.4084317569       14.0281565121       14.6615349979
  H        -2.9907221355       12.2946567161       14.5443404830
  H        -4.3377546263       12.7845944632       15.4749330266
  C        -1.6270248089       13.3318922613       19.6438124334
  H        -3.6392059848       13.2922871808       18.9672533831
  H        -2.9685527820       14.8269778096       19.4188426638
  C        -2.0421305989       13.3572416019       21.1717139606
  H        -1.2807948812       12.3511445251       19.4719934981
  H        -0.7613316737       14.0292636153       19.4880106599
  C        -0.9339984358       12.8061180918       22.1052983059
  H        -2.8726459311       12.6520571438       21.3366324361
  H        -2.4889999631       14.3056730265       21.5017376230
  C         0.1075220189       13.8270935892       22.5776997503
  H        -1.3360128085       12.1752536683       22.8996042813
  H        -0.3403743857       12.0823596464       21.5337091517
  C         1.3704175193       13.1935989475       23.1854385480
  H         0.4392841929       14.2936760587       21.6366923784
  H        -0.2265251706       14.6086283740       23.2460242889
  C         1.7662721910       11.9048260756       22.5105555166
  C         0.9668960980       12.4803545359       24.4492775762
  C         2.7376741284       13.9925005914       23.3062758907
  C         1.5976956376       10.7365226039       23.2712050642
  C         2.3425970088       11.5478780974       21.3170875389
  C         1.0786031485       11.1193002503       24.5192948810
  C         0.5501313619       13.0430696604       25.6583588305
  H         3.0100399932       14.3136366989       22.3308018906
  H         2.6079215957       14.8387723075       23.9376775636
  C         3.9347032669       13.2370957956       23.8861056133
  S         2.0930931257        9.2586138076       22.4749113573
  C         2.3576864801       10.1868168614       21.1054955765
  H         2.4355768052       12.3336144225       20.6034194478
  C         0.6745315087       10.4192223518       25.6694670137
  H         0.4305745912       14.0683254507       25.8229339990
  C         0.1309293736       12.3258334527       26.7252105917
  H         4.1888735095       12.4265202314       23.2438388766
  H         3.5854124719       12.8735823312       24.8222733947
  C         5.1395812958       14.0822553973       24.2433872833
  C         2.6966941474        9.5665536842       19.7587251176
  C         0.2110665241       10.9620722236       26.8417011665
  H         0.8894810123        9.3882279664       25.7270477778
  C        -0.2338449298       12.6614124264       27.9957237426
  H         5.8808745010       13.3546105658       24.4840108641
  H         5.0020211928       14.7369444894       25.0795836136
  C         5.9128781906       14.7146699060       23.0781024922
  C         2.7564850656        8.1891862961       19.4984541157
  C         3.0589561261       10.4200013667       18.6298101424
  C        -0.0763074875       10.2339873092       28.1190679603
  C        -0.3768853095       11.5352840764       28.8023052069
  S        -0.6198159860       14.1058910315       28.8410862220
  H         6.7221502122       15.3795242778       23.4641334776
  H         5.2631138364       15.3365723207       22.5745806752
  C         6.5884072896       13.6144748524       22.1318986058
  N         2.7377701789        7.2805321077       20.5031151479
  C         2.9075118589        7.5993373148       18.2504958847
  C         3.3496147524        9.8975080510       17.4044924640
  H         3.2323521576       11.4485922850       18.7052511722
  C         1.1618161917        9.5204403034       28.7145157157
  C        -1.3247414966        9.2777619096       27.8590223225
  C        -0.6009807541       11.8285225271       30.1200791345
  C        -0.8223225170       13.2036874571       30.3074208164
  H         7.4807013179       14.1462661610       21.7550135578
  H         6.8413589935       12.6092029877       22.5377798275
  C         5.7278911352       13.2154959848       20.9643146591
  S         2.6815750280        5.7721359103       19.8463590662
  N         2.8320559275        6.1813726223       18.2461494232
  C         3.2582219524        8.4186166847       17.1097835669
  H         3.8129100559       10.5547347253       16.6955536990
  H         1.3581670167        8.7387557275       28.0499746389
  H         0.8184487810        9.0684716652       29.6570300127
  C         2.3686263115       10.3862954328       29.1119418782
  H        -1.2268602493        8.8854554331       26.8252332771
  H        -1.2890282286        8.4632041094       28.5278422045
  C        -2.6542323293        9.9756054277       27.9462258568
  H        -0.7193549600       11.0287790351       30.8353518168
  C        -1.0950195527       13.9847599656       31.5704532797
  H         5.0354393880       13.9650011247       20.6347372698
  H         5.0728800487       12.4735058610       21.3433824154
  C         6.4500320483       12.6146990087       19.7781743618
  C         3.5365679755        7.7387036858       15.8439934111
  H         2.6381222179       10.9994942684       28.3043648779
  H         2.0343548171       11.1497402009       29.8175567104
  C         3.5019078225        9.5886818436       29.8285537181
  H        -2.6671943255       10.8173534472       27.2755334970
  H        -2.8226110382       10.2902759280       28.9904402085
  C        -3.7460322333        8.9842170881       27.5359775787
  C        -1.3577753751       15.3943767909       31.7806932772
  C        -1.4214082713       13.2010191150       32.7361570511
  H         7.0914769909       11.7967620405       20.0166469355
  H         5.8253939915       12.0858668204       19.0964066332
  C         7.2255932267       13.5928353926       18.9835416940
  H         3.6126945645        6.6613841470       15.9688499542
  C         3.7016242380        8.1985233737       14.5906054327
  H         3.8301022821        8.8209082740       29.1214644991
  H         3.0821052123        9.1179611793       30.7105244625
  C         4.6520147750       10.5357915732       30.2473479960
  H        -3.5495831396        8.6655976231       26.4967368498
  H        -3.7698324603        8.1322526616       28.2006114831
  C        -5.1211776739        9.7016404725       27.5704081944
  N        -1.0918202465       16.4289159907       30.8600157492
  C        -1.7096195831       15.9455403037       32.9683992536
  C        -1.8168508550       13.7633902063       33.9822020967
  H        -1.2707508053       12.0806698546       32.7060350579
  H         7.9551048815       14.0576097351       19.6964085372
  H         7.8338774500       13.2100652881       18.1728951781
  H         6.5209810297       14.3029864494       18.6485712403
  S         3.7930951039        9.7894656373       14.0243022624
  C         3.7751125969        7.1202608766       13.5767670132
  H         4.4707029986       11.4605546708       29.6694061816
  H         4.5964424707       10.7773212372       31.3309277200
  C         5.9800189026        9.8872525230       30.0575545990
  H        -5.1416254300       10.6365678948       28.0626506435
  H        -5.9036215092        9.0409074788       27.9769764666
  C        -5.4330103285       10.1101406855       26.1307325653
  S        -1.3918191626       17.8944319551       31.4836548513
  N        -1.9383698614       17.3521447957       32.8890841305
  C        -1.9029738332       15.2381455538       34.1658414720
  H        -2.0225328868       13.0293134164       34.7701473812
  C         4.2722600364        8.9835769619       12.5254068081
  N         4.1615940701        7.6090167856       12.4530761395
  O         3.7461893558        5.9124433398       13.7905383812
  H         6.8025850133       10.6255318496       30.2484912893
  H         6.0357939620        9.4429785758       29.0176955823
  C         6.1905792892        8.7580974757       31.0219953197
  H        -4.6379665610       10.6711841999       25.6455914224
  H        -5.5577265009        9.1915598523       25.6144794404
  C        -6.7752811427       10.8976506419       25.9666327635
  C        -2.3688737022       15.8853673953       35.3409707759
  S         4.7393697418        9.8100063532       11.0708910350
  C         4.1871053206        6.8032407641       11.2209087370
  H         7.0281684219        9.0901593028       31.6077266380
  H         5.3797398674        8.4455667727       31.6804317216
  C         6.6179568352        7.4658952040       30.3502664358
  H        -7.0327288993       11.0662680544       24.8915201372
  H        -6.6883554408       11.8746067897       26.4149720465
  C        -7.9792872673       10.2960632618       26.7083403634
  H        -2.2055945993       16.9112839917       35.3633304107
  C        -3.0032128735       15.4848069710       36.4940885771
  H         5.0863877463        7.1758194294       10.7098222027
  H         4.4138235050        5.7446579904       11.3162489980
  C         2.8155106475        6.8540297328       10.5135073537
  H         7.5910202022        7.5021005295       29.8218207906
  H         5.8442434426        7.1616477429       29.5944014048
  C         6.6396740596        6.3552678977       31.3692222587
  H        -7.8808208902        9.2248362022       26.7037332557
  H        -8.0006109017       10.5593198329       27.7837729311
  C        -9.2753966562       10.7638801880       26.0933129047
  S        -3.2794550538       13.8954971723       36.9640100484
  C        -3.2473119942       16.5356301586       37.5101911436
  H         2.7663256668        6.0274935575        9.8272945456
  H         1.9303453839        6.6204028652       11.1459093454
  H         2.6761921507        7.7661020434        9.9644975575
  H         5.6630180315        6.1546062486       31.8019977941
  H         7.3455550633        6.5313168390       32.2037271776
  H         7.0027079072        5.5335502801       30.8236039618
  H        -9.5803527823       11.7280578125       26.4314278152
  H       -10.0091773524       10.0499283553       26.3433212602
  H        -9.1778821683       10.8070051836       25.0091948331
  C        -3.8773582187       14.6128483363       38.5026640432
  N        -3.7705520522       15.9496825398       38.5709968729
  O        -2.9747867277       17.7484188145       37.4065105278
  S        -4.3117204058       13.7000675296       39.9179770078
  C        -3.9477929466       16.7452403241       39.7924914252
  H        -4.3873164800       17.6381633146       39.4060449530
  H        -4.5895715620       16.2699293691       40.4938331892
  C        -2.5875594330       16.9561650477       40.4210493046
  H        -1.9399545072       17.3926592421       39.6314842088
  H        -2.6976912611       17.7488726018       41.1937931933
  H        -2.1825023263       16.0595445934       40.7530850598
