352
i=
  H         2.3835822526        1.4508733931       12.9698889167
  C         3.2171373496        1.8082476446       12.4277943616
  H         3.8559448674        1.0071479580       12.2509092948
  C         2.5786978005        2.2491400567       11.1230843303
  C         3.8305538705        2.9138129898       13.2914058344
  C         3.5413762361        2.7708724461       10.1530941018
  H         1.8395990272        3.0265605815       11.4117899404
  H         1.9871726218        1.4116104861       10.6293958008
  H         4.7827351238        3.2429065084       12.8141044983
  H         4.1479023271        2.7512722692       14.3380601701
  H         3.1234260552        3.7183204633       13.2224918431
  C         4.5429000257        1.7164767189        9.5725946855
  H         3.0060860606        3.0905642608        9.3108328295
  H         4.1108300891        3.6071253992       10.4963176491
  C         5.4843486573        2.0639995094        8.3955442070
  H         4.0035763868        0.9528631928        9.0886706341
  H         5.1616377200        1.3874562916       10.3727110495
  C         6.7454896408        2.8028144579        8.8726229520
  H         5.0071403796        2.6906752373        7.6930385087
  H         5.6524109341        1.1547017212        7.8644597318
  C         8.0760215751        2.0978619795        8.9534859419
  H         6.9856120293        3.5050139917        8.0221254602
  H         6.4707713899        3.4336491469        9.6976542591
  C         9.3122695651        2.9569279152        9.1283369741
  H         8.1258443874        1.5525298744        8.0481954645
  H         8.0959260486        1.3625164849        9.6848209102
  C         8.9797660230        4.2514456627        9.7989602790
  C         9.6345857861        3.6932695792        7.8574467999
  C        10.5401602919        2.2345088832        9.7933781275
  C         9.1356717575        5.3768882797        8.9873571265
  C         8.5315493718        4.5821014868       11.0725085975
  C         9.6004529439        5.0501947516        7.7571815962
  C         9.9237125660        3.0774163695        6.7023461934
  H        10.1460918100        1.7443574990       10.7366779004
  H        10.6670185066        1.4270766364        9.0644271289
  C        11.7768651567        3.0910238254       10.0058682079
  S         8.8610001899        6.8703808238        9.8487608091
  C         8.3678359000        5.9909688899       11.2482584456
  H         8.5283455846        3.8085865308       11.8583011343
  C         9.9977070657        5.6288831553        6.6068328908
  H        10.0380721452        2.0332766178        6.8142476043
  C        10.2688257916        3.6395681254        5.5195936150
  H        11.5363742414        4.0283300124       10.3362918262
  H        12.2842333788        3.1989505430        9.0565065020
  C        12.7893022932        2.3752994476       10.9216591365
  C         7.9197254041        6.6817923180       12.5356416931
  C        10.2480102432        4.9674082373        5.3827617319
  H         9.9915700279        6.6636592087        6.6222356591
  C        10.7000620419        3.2116323683        4.2709637141
  H        13.7285181223        2.8234511800       10.8784096312
  H        13.0580147667        1.3162255214       10.5862679250
  C        12.3009533244        2.4053921013       12.4578835659
  C         7.7785663474        8.0672433277       12.7748745094
  C         7.3884088019        5.8084748332       13.6429331047
  C        10.6827823068        5.6922339101        4.1300615605
  C        10.9583427888        4.2885463123        3.4615459024
  S        10.9536756169        1.6674486062        3.5191957285
  H        11.7808745651        3.3193703951       12.8247762171
  H        11.6984801455        1.5248449087       12.6628469123
  C        13.5378599489        2.3585928310       13.3267465940
  N         7.9830143852        9.1107916100       11.8329146974
  C         7.4098091324        8.5993055132       14.0016044606
  C         6.9675529589        6.3187347095       14.8686933295
  H         7.3672421193        4.7680289680       13.4043303246
  C        11.9374911660        6.4823160888        4.2737983312
  C         9.5456625042        6.3224005839        3.3136306682
  C        11.2286970828        3.9098414173        2.1214488921
  C        11.2794988451        2.5268564419        2.0395519932
  H        13.7977165078        3.3566163254       13.2701688037
  H        14.3312439136        1.8197323881       12.8382112026
  C        13.3765260067        1.7573854794       14.7158478931
  S         7.8678236695       10.5186383004       12.6012080732
  N         7.4641271239        9.9989759381       14.0555029365
  C         7.0229979694        7.7928368892       15.1049222063
  H         6.5379489839        5.6566437493       15.6727539169
  H        11.6933161540        7.2737162978        4.8683793474
  H        12.2603953384        6.8557894864        3.3079801501
  C        13.1312499428        5.6195030187        4.8300054919
  H         9.2225809139        7.2879591369        3.7848390581
  H         9.9916849761        6.6019588009        2.3836758565
  C         8.3243619380        5.5144461641        3.0672707090
  H        11.3908784450        4.6683000269        1.3970333608
  C        11.6996919410        1.8205231223        0.8322909633
  H        12.4713626233        1.1503224380       14.8259925614
  H        14.2398306777        1.0892307006       14.8799901896
  C        13.1622639421        2.8576336978       15.6678807498
  C         6.8604749100        8.4264701831       16.3710337641
  H        12.7853130776        4.8911559092        5.5250734955
  H        13.4085014193        4.9037779943        4.0407436730
  C        14.2810678652        6.4357821120        5.3329458575
  H         7.7289894271        5.5525363788        3.9955468126
  H         8.5011907330        4.4816292168        2.9555783565
  C         7.5836477779        6.0529388093        1.7969424165
  C        11.7794863350        0.3868326123        0.6949278429
  C        11.8429189328        2.5385560102       -0.4641753213
  H        12.4774014510        3.5814127900       15.2364283084
  H        14.0352215579        3.2635574101       16.0315011529
  C        12.4931990506        2.2920790307       16.8879318544
  H         7.0203085007        9.4964768903       16.3519254898
  C         6.5481202430        8.0417953913       17.7027375042
  H        13.9877164622        6.8565266898        6.3080412118
  H        14.4502614144        7.2900026694        4.6969714081
  C        15.5625373721        5.5434833922        5.4186607451
  H         7.6524313763        7.0837954850        1.7205225336
  H         8.1485229474        5.6038256732        1.0061500910
  C         6.1385375987        5.4728306908        1.7281147163
  N        11.5177477124       -0.5593524019        1.6320974810
  C        12.1117347186       -0.2157552885       -0.5237882738
  C        12.2067738255        1.9584085499       -1.6742154654
  H        11.6699133898        3.6339178169       -0.4834159217
  H        12.8443135082        1.2706852127       17.0782274434
  H        11.4273801224        2.2182769893       16.6977738936
  H        12.6323127808        2.8794186322       17.7949685033
  S         6.2798930086        6.3935383702       18.1598072624
  C         6.5093065719        9.0886175390       18.8027728969
  H        15.3434617686        4.6224000518        5.9593838395
  H        15.9053565998        5.3056202770        4.3775409623
  C        16.6754654040        6.2227430028        6.2074231458
  H         6.0372947758        4.6906488406        2.4084363271
  H         6.0627228619        5.0726858052        0.6916951869
  C         5.0268489461        6.4756201586        1.9599414561
  S        11.7139458668       -2.0218404486        1.0044112974
  N        12.1888835091       -1.5479700497       -0.4519408069
  C        12.4027402909        0.4686909078       -1.7594687700
  H        12.4313133337        2.5462426125       -2.5714079197
  C         5.9673904773        7.1106676506       19.7737406106
  N         6.1215105715        8.4590764829       19.9136703531
  O         6.5462341369       10.2897890154       18.5584770528
  H        17.4809729325        6.4575515853        5.5774287799
  H        16.3567671728        7.1463746206        6.6812491975
  C        17.1678789679        5.2307131554        7.2803186765
  H         4.0791190088        6.0574953120        2.0794822387
  H         5.2821811159        6.8492421518        2.9401932411
  C         5.0702312046        7.7674496725        1.0697999663
  C        12.6837310910       -0.3141125454       -2.9283069408
  S         5.4306176772        6.1949066034       21.2675263502
  C         6.1447077651        9.0763272709       21.2542421029
  H        16.4371508205        5.2073797423        8.1311880369
  H        17.3479533476        4.2734829451        6.7944865895
  C        18.4738865637        5.6779387157        7.8394895494
  H         5.3203016222        7.4593691711        0.0392373938
  H         5.8742336835        8.4674742792        1.2863080132
  C         3.8050362078        8.6281859513        1.0810679761
  H        12.3470645919       -1.3351832370       -2.8759612889
  C        13.2130526757        0.0269710210       -4.1281589878
  H         5.3804526693        8.7094771210       21.7589846592
  H         6.0225535328       10.1385732979       21.1680770505
  C         7.4586010673        8.8522251408       21.9852356930
  H        18.5474534287        5.1331054963        8.7256358896
  H        18.5523345464        6.6657589600        8.0579958725
  C        19.6622540165        5.4227026967        6.9322050317
  H         3.5820932815        8.7071794384        0.0563600364
  H         2.8938032017        8.2205566825        1.5265926922
  C         3.8649808009       10.0382937137        1.7453570500
  S        13.7953933152        1.5109798388       -4.6913401407
  C        13.2867752470       -1.0622255829       -5.0862305192
  H         7.7228443523        9.8151378339       22.3780578244
  H         8.2570887051        8.4124103991       21.3422399191
  H         7.3696226934        8.1814251445       22.8757593114
  H        19.7314562757        6.1648435006        6.2130021476
  H        20.6513140509        5.3921235228        7.3998568714
  H        19.4637026899        4.5221471124        6.4199160866
  H         4.5958629006       10.6662679947        1.3154573876
  H         2.9183956323       10.6231851616        1.6985668713
  H         4.0494914646        9.8945728776        2.8044174196
  C        14.1771141039        0.7517796802       -6.1927262200
  N        13.8994937947       -0.5762748552       -6.1944364984
  O        13.1240774075       -2.2837090800       -4.9207571295
  S        14.6034609288        1.6002463583       -7.6685766846
  C        14.0705233280       -1.4469633655       -7.4011822095
  H        14.2631507310       -2.4724508620       -7.1656470471
  H        14.7763879951       -1.1672112662       -8.2081737087
  C        12.7820950372       -1.2492729432       -8.2258108687
  H        12.0351612023       -1.0895961838       -7.5714287207
  H        12.7066551798       -2.1355496114       -8.8764752668
  H        12.9159989472       -0.4101063885       -8.8535047121
  H        -1.1636864247       13.8797759039       15.2033319658
  C        -2.0662501065       13.6589500211       15.7894833518
  H        -2.6765833635       14.4938431143       15.9226883891
  C        -1.6931006131       12.9925104288       17.1650375966
  C        -2.9969094659       12.6413839449       15.0108158892
  C        -2.4326266359       13.2574625231       18.3609301482
  H        -1.7077001608       11.8635501106       17.1396713081
  H        -0.5974169091       13.1366789071       17.3260616134
  H        -2.3656214470       11.7687693085       14.7140493777
  H        -3.8181540432       12.1875728523       15.5444994899
  H        -3.3281430960       13.0435346177       14.0425146343
  C        -1.7492312206       12.5111667949       19.5063742242
  H        -3.4782502708       12.8852358948       18.1929671586
  H        -2.5046378434       14.3828034516       18.5573113603
  C        -2.2321788960       12.8820532460       20.9417067355
  H        -1.9689889064       11.4758465748       19.5036673711
  H        -0.6855307694       12.6817302651       19.3873652272
  C        -1.3088319188       12.3180483970       22.0841426323
  H        -3.2930221361       12.5294904712       21.0013340677
  H        -2.2829228642       13.9467787503       21.0732811950
  C        -0.1658355258       13.3014169943       22.3128814143
  H        -1.9017595072       12.0273550711       22.9569317608
  H        -0.8357287270       11.4015320811       21.6217746718
  C         1.0840533504       12.8131042956       23.0092649481
  H         0.1395038238       13.8145723640       21.4028123841
  H        -0.5654299204       13.9747240414       23.0716703557
  C         1.5418039350       11.4903821683       22.3698015976
  C         0.7745840512       12.0648068791       24.2604321816
  C         2.2037482115       13.7666539740       23.2466583709
  C         1.3209322989       10.3725437564       23.1369052954
  C         2.0690153243       11.1916547735       21.1160718908
  C         0.9027321160       10.7553187286       24.3635225954
  C         0.3506226157       12.7214724159       25.4249348974
  H         2.3170466989       14.1905109315       22.2345970512
  H         1.9240350916       14.6464279944       23.9068609887
  C         3.5430211216       13.1611088119       23.6686689426
  S         1.6760935284        8.8700868112       22.3281349814
  C         2.1991604180        9.8360359901       20.9918016357
  H         2.1121019595       12.0310654524       20.4035783555
  C         0.5808756372       10.1719371464       25.5869757314
  H         0.2038211524       13.7479124405       25.3057637618
  C         0.0054429917       12.1930884526       26.6291595351
  H         4.0212369327       12.5875386136       22.8880618692
  H         3.3707796121       12.4987028534       24.5523038364
  C         4.4797003255       14.2505079388       24.1560978060
  C         2.6295568498        9.2837094352       19.6594126138
  C         0.0704358965       10.8457698150       26.7083923327
  H         0.5671268709        9.0175832104       25.5458991707
  C        -0.4010117052       12.6819163162       27.8219929957
  H         5.1861773779       13.8550147577       24.8461736348
  H         3.9047500110       15.0468300858       24.5569169695
  C         5.2327570178       14.9780939119       23.0229249809
  C         2.5741945957        7.8698171698       19.3009862736
  C         3.0595076790       10.2043635061       18.5630501505
  C        -0.3180287859       10.2000738621       28.0088821925
  C        -0.6347904192       11.6151215637       28.6732353449
  S        -0.7603001389       14.2075611465       28.5653539555
  H         5.6299455939       15.8334280258       23.4749648575
  H         4.5508919668       15.2808806258       22.2716666504
  C         6.3389340790       14.1595630905       22.3973187980
  N         2.0918202661        6.7951553874       20.1155519526
  C         2.9592303076        7.4170940712       18.0524683618
  C         3.4043625345        9.7149409573       17.3216342133
  H         2.9718437160       11.2891734966       18.6889871664
  C         0.7385638402        9.4141564345       28.7040542854
  C        -1.6764611206        9.3545496964       27.8748070206
  C        -1.0970199087       12.0494459047       29.9408675810
  C        -1.0598221698       13.4055364729       30.0668468738
  H         7.3018265386       14.6296034284       22.4821307688
  H         6.4584416520       13.3053102517       22.9837538195
  C         5.9868676063       13.7374075539       20.9940252537
  S         2.2265490195        5.3874380391       19.3220826915
  N         2.8143800273        6.0375167555       17.9251660547
  C         3.4284401918        8.2587754513       17.0369560586
  H         3.8279596424       10.4153967167       16.5921147766
  H         1.0544926319        8.6214573349       28.0490270687
  H         0.3430300085        9.0067639432       29.5962839977
  C         1.9785973802       10.2703347826       28.8879441867
  H        -1.6380195714        8.6473457358       27.0410451954
  H        -1.9173994810        8.9395591383       28.7889650633
  C        -2.8744036204       10.1734530861       27.5234015680
  H        -1.2821653020       11.2752605554       30.6314610843
  C        -1.2943618526       14.1784455815       31.3623025287
  H         5.4002901860       14.4984987554       20.5451109148
  H         5.5434173813       12.7133794201       20.9515685682
  C         7.2239558106       13.4509113565       20.0972783019
  C         3.5905558686        7.6742929677       15.7470531220
  H         2.2070027016       10.7476561082       27.9630157255
  H         1.6679938576       10.9643363110       29.6877811080
  C         3.2240058299        9.4189093818       29.3029751111
  H        -2.5493206747       10.9393254395       26.8546338260
  H        -3.1135780278       10.8100000259       28.4051003610
  C        -4.1156489854        9.3974174707       27.0330909691
  C        -1.3700836277       15.6191185671       31.4681292659
  C        -1.3897359303       13.4182367976       32.6028398255
  H         8.1456007612       13.7948508636       20.5117731102
  H         7.3382703515       12.3165639153       20.0728439163
  C         7.0330546337       14.0512987915       18.7133603279
  H         3.5604659808        6.6642447926       15.7794580582
  C         3.8832914936        8.1186005711       14.4914293885
  H         3.4188386311        8.5554812607       28.6718049222
  H         3.0421112404        8.8592939786       30.2199763379
  C         4.4971234598       10.3046031526       29.4056671962
  H        -3.9264126564        9.2130623777       25.9960061275
  H        -4.3212133371        8.5758414312       27.6433726794
  C        -5.3758820980       10.2748380319       26.9759591589
  N        -1.2411403091       16.5001913340       30.3915485568
  C        -1.6571847356       16.2527713343       32.6408858300
  C        -1.6781578673       14.0365538078       33.7836083071
  H        -1.3559875647       12.3336004653       32.6146625127
  H         7.2202101605       15.0582601184       18.7909634798
  H         7.6521771320       13.6854391060       17.8655700406
  H         6.0038423824       14.0632015526       18.4010939673
  S         4.1467772540        9.7280493128       13.9261510250
  C         3.9837435634        7.0633480834       13.4509080160
  H         4.5594069014       10.8890506798       28.5511763002
  H         4.4347192179       11.0962281767       30.1088212842
  C         5.7975223358        9.5554038888       29.5064255837
  H        -5.3061017062       11.0925458315       26.2594835064
  H        -5.7005396079       10.6779118361       27.9785680257
  C        -6.6041784572        9.5009029436       26.5055733727
  S        -1.4368030681       18.0319934629       31.0055149487
  N        -1.8445096386       17.6307996284       32.4944487176
  C        -1.8578515189       15.5121411539       33.8278638443
  H        -1.7045580887       13.4534798496       34.6493626554
  C         4.2552630886        8.9846655030       12.3030608585
  N         4.3519499242        7.6259792041       12.3132816932
  O         3.9288021782        5.8391742512       13.6393807689
  H         6.6447416609       10.2622563029       29.2615950313
  H         5.8113019052        8.7720716009       28.7379205584
  C         6.0405453984        8.9657225489       30.8394522557
  H        -6.3533589929        8.7835982698       25.7062652754
  H        -7.0974989931        9.0142943416       27.3069695569
  C        -7.5544503563       10.5209059152       25.8849139605
  C        -2.1808220595       16.1631522537       35.0648068413
  S         4.8202238586        9.8724115089       10.9085424141
  C         4.4790243269        6.7914352287       11.1178347248
  H         6.7278996187        9.6640597862       31.2825520525
  H         5.0553956683        8.8616392048       31.3151138066
  C         6.6359767556        7.5401900720       30.8269618507
  H        -7.0734563949       10.7987867552       24.9690721156
  H        -7.6447369952       11.3554166698       26.4964707715
  C        -8.8384519614        9.8601182928       25.5086302930
  H        -1.7998390282       17.1760097753       35.0286385866
  C        -2.7876051051       15.7364204267       36.1927263387
  H         5.2342288337        7.2545946116       10.5263013370
  H         4.8184357795        5.7939015215       11.4129436435
  C         3.1086122427        6.8660439565       10.4957718669
  H         7.5609155542        7.4265333185       30.2121156218
  H         5.9055379566        6.8200414148       30.3894775359
  C         6.9006520317        7.1598947544       32.2172658471
  H        -9.2300768412       10.2915167819       24.5241653552
  H        -8.6432185610        8.8571069553       25.4509921803
  C        -9.9087911003       10.0530281626       26.5584918553
  S        -3.2302411768       14.1252307940       36.5568434893
  C        -2.8963123962       16.7527068801       37.3120178639
  H         3.0656161095        7.6802953641        9.8319608876
  H         3.0730082019        6.0238444009        9.7541833275
  H         2.2620899459        6.9062852907       11.1857302329
  H         7.6701855512        6.3567243484       32.1642049321
  H         6.0156601932        6.7079555282       32.6352664855
  H         7.2209311182        7.8737092331       32.9129132273
  H       -10.7766037142        9.4629849792       26.5448946756
  H       -10.2355870719       11.1077727904       26.5060350855
  H        -9.3995299515       10.0224661904       27.5283050538
  C        -3.8586287543       14.7935021911       38.0426164806
  N        -3.5443551223       16.1105374564       38.3176892818
  O        -2.6989311417       17.8850953218       37.2098247621
  S        -4.4231410620       13.9488724710       39.4438656481
  C        -3.7190838940       16.7394986711       39.5919900507
  H        -3.7864660579       17.7723446286       39.3414571619
  H        -4.7129853811       16.5720303180       40.0913222731
  C        -2.5091456457       16.5569467052       40.4652537745
  H        -2.3885131148       17.3993095393       41.1943482160
  H        -2.6844077029       15.5577942920       40.9781007490
  H        -1.5650703300       16.4707575984       39.9214022278
