352
i=
  H         2.3190402672        3.1284570974       12.1613432543
  C         2.9573738528        2.3101294023       12.4153199976
  H         2.3879233328        1.3964282643       12.0925882295
  C         4.3451400403        2.4683220931       11.7314410662
  C         3.1247887821        2.3433948880       13.9375520215
  C         4.3230578296        2.8653388025       10.2379412091
  H         4.8965040219        1.5449712845       11.9615170080
  H         4.9183856987        3.1946044264       12.2188270096
  H         2.2085592680        2.7070329354       14.4164506801
  H         3.9776347878        2.8628926325       14.3468717525
  H         3.2907908385        1.3234272214       14.2783188855
  C         4.7153510930        1.8367049438        9.1881881275
  H         3.3318623986        3.3090747251       10.0713231798
  H         5.0227098469        3.7015385282       10.1960580767
  C         5.5768655313        2.1438755934        7.9792945584
  H         3.8851781491        1.2924521869        8.8558368807
  H         5.2079141997        1.0352288440        9.7408440004
  C         6.8848560311        2.8791545771        8.3108483827
  H         4.9495192434        2.7843464627        7.3313853607
  H         5.7963923291        1.4032156651        7.2926874837
  C         8.0314828293        1.9737229306        8.8103608918
  H         7.1252382561        3.3453780733        7.3783638067
  H         6.6871762620        3.6739832245        9.0562586455
  C         9.3601824265        2.7389327433        9.1991604963
  H         8.2073373753        1.1880527672        8.0799426511
  H         7.6306319220        1.4238815423        9.6841636786
  C         9.0367632705        4.1087246919        9.8384859255
  C         9.8599500790        3.4472884441        7.8835589290
  C        10.2409864197        2.0320888860       10.1492746370
  C         9.2115446810        5.2074306591        9.0154143706
  C         8.5130099665        4.4868568610       11.1170936125
  C         9.7809752302        4.7787564744        7.8186130823
  C        10.2705809783        2.8067619620        6.7149522837
  H         9.6930710988        1.4771785390       10.9352758395
  H        10.5745793171        1.2414950203        9.5411767976
  C        11.4308991435        2.7001263565       10.7378120859
  S         8.8265750734        6.7201293709        9.7589602722
  C         8.3797008157        5.8461063443       11.2529843680
  H         8.4616121627        3.6936802176       11.8729390118
  C        10.1848186327        5.3671819113        6.6392588359
  H        10.3369815421        1.7394789052        6.7691052007
  C        10.6163618452        3.3950171057        5.5589805161
  H        11.1613729507        3.5099096365       11.4413466915
  H        11.9175332415        3.2159337036        9.9343198795
  C        12.4065885776        1.8170046738       11.4680525821
  C         7.8984198275        6.5112334122       12.5464122081
  C        10.6320668136        4.7483246167        5.5120531746
  H        10.1409279961        6.4654896576        6.6139312131
  C        10.9489335633        2.9601267285        4.3051837306
  H        13.3650028769        2.3605970891       11.6513977030
  H        12.7335784754        0.9742604657       10.9255963584
  C        11.9414193785        1.4465912382       12.9382915154
  C         7.8423845639        7.9444126234       12.7939682419
  C         7.2731679841        5.6264057549       13.6184041473
  C        10.9618122472        5.4107629534        4.1875885945
  C        11.2056813578        4.0803263566        3.5141381615
  S        11.0343348511        1.4304902036        3.5517636994
  H        10.8598374059        1.5850707623       13.0481095741
  H        12.0929259470        0.3629969607       13.1106803468
  C        12.8995951679        2.0687549289       13.9752098370
  N         8.3094000141        8.9128593465       11.8883783255
  C         7.3494900737        8.4297384321       13.9509651967
  C         6.8715387000        6.2081870461       14.7720866028
  H         7.0605415017        4.6388261572       13.4551227702
  C        12.2614616818        6.2138056178        4.3811323225
  C         9.7976179715        6.2194951103        3.5445147798
  C        11.3121978398        3.5818006669        2.1811525680
  C        11.4489645956        2.2115237191        2.1449429840
  H        13.3718372446        2.9954488991       13.6549206368
  H        13.7822505707        1.4329337777       14.1188691599
  C        12.2171437846        2.1553229858       15.3479698422
  S         8.2567844516       10.3198180727       12.5693343107
  N         7.4234833843        9.8870846643       13.9299564024
  C         6.9594606919        7.6460745959       15.0617465968
  H         6.4532848877        5.5575695792       15.5630057067
  H        12.0785970139        6.9296739851        5.1930903919
  H        12.5107186840        6.7754202213        3.4658397690
  C        13.4743335407        5.4304892571        4.7736161653
  H         9.3124662160        6.8162419628        4.3301620481
  H        10.1853991867        6.9661429716        2.8174664740
  C         8.6507122642        5.4296405270        2.9615630997
  H        11.5775873352        4.2827733751        1.4076001532
  C        11.6718466820        1.4938907510        0.8483774741
  H        11.7043211559        3.0662688075       15.5530897898
  H        11.4761479898        1.3373932826       15.4330303089
  C        13.3090859132        1.9404042637       16.4413175704
  C         6.5730695247        8.2952007469       16.2144634673
  H        13.1523929196        4.7182377806        5.5116951269
  H        13.8546712439        4.7953222895        3.9813423452
  C        14.6087326580        6.2279628935        5.4649584127
  H         8.2436781495        4.7475099278        3.7260497836
  H         9.0924496768        4.9818525244        2.0887552801
  C         7.4451391055        6.3098481169        2.6422649971
  C        11.9016312344        0.1249803533        0.8054884673
  C        11.8843497399        2.2564852414       -0.4307006656
  H        14.1758118889        2.5424173102       16.1569829797
  H        13.8126508600        0.9971587719       16.4930378950
  C        12.8589687153        2.2788970607       17.8291171328
  H         6.5382937295        9.3747270205       16.1312576332
  C         6.2671914104        7.8072559210       17.4487146146
  H        14.2161687739        6.9952976141        6.1116515517
  H        15.1223989343        6.7680479580        4.7414981461
  C        15.6771225998        5.3129595022        6.1207010298
  H         6.9122084742        6.5680230321        3.5610428795
  H         7.7390085560        7.3104190320        2.2436616842
  C         6.4382027549        5.5627151502        1.7391013371
  N        11.7063469263       -0.7652152534        1.8194454707
  C        12.1459149903       -0.5816457710       -0.3579545168
  C        12.2082135487        1.5586698786       -1.6128891383
  H        11.5862044197        3.2975169887       -0.5972976688
  H        12.0364672887        2.9962133259       17.8778175457
  H        13.7313670231        2.6432861272       18.3729807060
  H        12.4622033395        1.3731967758       18.2460666996
  S         5.9778198931        6.2032710965       18.0012408119
  C         6.2492373791        8.9197308541       18.4800207474
  H        15.4882524999        5.1268541554        7.2258704939
  H        15.6223471725        4.2851468908        5.7084529867
  C        17.1353696300        5.7183739178        5.9452809442
  H         6.2799150189        4.5337774394        2.0432427991
  H         6.6801222972        5.4326790864        0.6847647552
  C         4.9500564530        6.1362172589        1.6795201953
  S        11.8531569163       -2.3059476588        1.3969801472
  N        12.2617450866       -1.9885127428       -0.1369528039
  C        12.3416213790        0.0437794430       -1.6662775315
  H        12.2723853367        2.1327604219       -2.5817943060
  C         5.8552807835        6.9767715765       19.6390837544
  N         5.8781811285        8.3479384326       19.6406563672
  O         6.4665097591       10.0861223643       18.2732188394
  H        17.3374716223        5.3975847758        4.9191291575
  H        17.0964248654        6.7778996718        6.1538898539
  C        18.0899381340        5.0173212251        6.9576366589
  H         4.3294937284        5.4415326755        1.1447490051
  H         4.5359227944        6.0031391411        2.7018522951
  C         4.9857354835        7.5321449432        1.0242239466
  C        12.5969228282       -0.7976858080       -2.8001916862
  S         5.3706662495        6.2112613883       21.1052337444
  C         5.7777140158        9.1144878539       20.8144824452
  H        17.5794324087        4.6126263645        7.8230634617
  H        18.5036820162        4.0923054586        6.5523384816
  C        19.1702984196        5.9364862649        7.4801548795
  H         4.2375883197        7.5456820187        0.2019165576
  H         5.9401429962        7.7171815412        0.5143706940
  C         4.7647303911        8.5951246137        2.1210798488
  H        12.3111959838       -1.8136896158       -2.6557867927
  C        13.1433500435       -0.5435021204       -3.9850454415
  H         5.0991365965        8.7698775334       21.5592835993
  H         5.2669083402       10.0169017290       20.6314378510
  C         7.1572206212        9.3249281935       21.4482666557
  H        19.7011511637        5.5805904776        8.3274448860
  H        18.7703041169        6.9087875096        7.7770608877
  C        20.2334827364        6.2404762004        6.4108108342
  H         3.9804023085        8.1946305541        2.7370898894
  H         5.6136861163        8.7566839506        2.7888052883
  C         4.4394553685        9.9720021705        1.6063576391
  S        13.5799513850        0.9897882538       -4.6319099430
  C        13.2586982563       -1.6721772305       -4.9596567326
  H         7.1201874310        8.8536938978       22.4425343079
  H         7.3397323582       10.4003480716       21.4131627285
  H         7.9573663411        8.7984087121       20.9443685975
  H        19.7496999294        6.9315545689        5.6214395216
  H        21.0845951220        6.7343196580        6.7841805007
  H        20.6241863736        5.3430656215        5.9170582883
  H         3.7464894770       10.3646775147        2.2851605240
  H         5.3641079331       10.5210068617        1.5202918502
  H         3.9713870324        9.9604360101        0.5987579344
  C        13.8159803312        0.2252211719       -6.1922875058
  N        13.7860199841       -1.1504619324       -6.0920547992
  O        13.0619836647       -2.8661324019       -4.7140556125
  S        14.4202228282        0.9865406365       -7.6296798481
  C        14.1020783196       -2.0471985625       -7.2085477782
  H        14.2129422917       -3.1306250403       -6.9358184129
  H        15.1231701764       -1.6112050982       -7.5240218433
  C        12.9645286995       -1.9322648094       -8.3835222833
  H        13.2119612757       -1.0740172418       -9.1078233093
  H        12.0404336495       -1.7395219904       -7.8373214153
  H        12.9158933705       -2.7947551675       -9.0304678322
  H        -3.6022998235       13.2143489524       16.2141711373
  C        -2.6320571297       13.7109859341       16.0211755398
  H        -1.9071551388       12.9284489296       16.0136852003
  C        -2.3826040868       14.6269015111       17.2105683268
  C        -2.6587860759       14.4640080700       14.5916939215
  C        -2.7313524350       13.8961057432       18.5200543742
  H        -1.3235246242       14.9236872446       17.1066388811
  H        -3.0186767397       15.4632521968       17.1706866522
  H        -3.3913104040       15.2304360459       14.6962663786
  H        -1.7163191650       14.9154092840       14.3301549237
  H        -2.9768715584       13.8405482030       13.8019438460
  C        -1.8095771445       14.0527577594       19.7190529798
  H        -2.8821271292       12.8241961075       18.3560825428
  H        -3.6628917549       14.2694663661       18.8800462556
  C        -2.3840660500       13.6888032547       21.0481691891
  H        -0.9080253154       13.4754599945       19.6553555131
  H        -1.4506578586       15.0479842060       19.7335850507
  C        -1.2891985793       13.0447553342       21.9438374199
  H        -3.1479879277       12.9528139907       20.9967069180
  H        -2.8400028318       14.5570000091       21.4564507696
  C        -0.1429536641       14.0119066989       22.4751531115
  H        -1.6866474466       12.5847938094       22.7619942363
  H        -0.9808958535       12.1511055363       21.3557742799
  C         1.0246266412       13.3057059745       23.2147291746
  H         0.2166249688       14.5696401153       21.6143460661
  H        -0.5859230335       14.6663827336       23.1240457041
  C         1.4266492882       11.9833948761       22.5797232770
  C         0.5300138269       12.6105896843       24.5186879278
  C         2.2679254541       14.1492403928       23.3855415499
  C         1.1927722575       10.8781705582       23.3629602238
  C         1.9219165024       11.6291040523       21.3382196321
  C         0.7593409388       11.2333355383       24.6156148791
  C        -0.0046742175       13.1551779790       25.6801855049
  H         2.4309983027       14.7685157456       22.4948964725
  H         2.0669599436       14.8235226859       24.2065685286
  C         3.6060577297       13.4850322996       23.8122268395
  S         1.5887829729        9.4500844312       22.5470770618
  C         1.9499154236       10.3029969797       21.1186877673
  H         2.1013449027       12.3891264921       20.6207855786
  C         0.3621300449       10.5833278014       25.7485989238
  H        -0.1417171855       14.2376803522       25.7035973834
  C        -0.3706822187       12.5012342082       26.8298070553
  H         4.0398683909       12.8809964401       22.9871177836
  H         3.4334577630       12.6629344344       24.5982955661
  C         4.6439907254       14.4463430988       24.3446618928
  C         2.4050153763        9.5426434968       19.8689669924
  C        -0.1781299222       11.1674848291       26.9137796558
  H         0.3655278708        9.4982695410       25.6362128351
  C        -0.7821310861       12.7755432267       28.0669402158
  H         5.3384099450       13.9029381336       24.9814644938
  H         4.1501764083       15.0953773911       25.0384824314
  C         5.3472996686       15.1888392789       23.1860487042
  C         2.2910675990        8.1298728702       19.6835965637
  C         3.0035909718       10.3431999637       18.7765156046
  C        -0.5659618026       10.3518930446       28.0602623194
  C        -0.9844994586       11.6293361687       28.8301079353
  S        -1.2015063795       14.2368286878       28.8797002963
  H         6.0527624381       15.9114971213       23.5429899435
  H         4.6237620303       15.6955690867       22.6324261482
  C         6.1389420629       14.2262032772       22.1865678168
  N         1.9165093760        7.1993129659       20.6349442480
  C         2.6314831212        7.5859218878       18.5065486307
  C         3.3846679904        9.7712167718       17.5961030727
  H         3.3089403386       11.3772195423       19.0081367016
  C         0.5483471139        9.6121871326       28.7360084285
  C        -1.7544732144        9.4003449410       27.8577716057
  C        -1.4798358348       11.9347961482       30.1440115365
  C        -1.6256324006       13.2733959415       30.2753793575
  H         7.1969177907       14.4170140150       22.2826880660
  H         6.0699885344       13.1606752556       22.4103850383
  C         5.7687886983       14.3484819525       20.7071515255
  S         1.8479759566        5.7228741695       19.8641281489
  N         2.4432371263        6.2342511973       18.4375255769
  C         3.0902586082        8.2826815443       17.4018899139
  H         3.9956442157       10.3097834632       16.9143756694
  H         1.1309502868        8.9746904423       28.0291947950
  H         0.1561477490        8.9257142177       29.4478506098
  C         1.6405288250       10.4178632918       29.4532468020
  H        -1.6432203470        8.8904530694       26.8917388419
  H        -1.8413392124        8.6521885934       28.5742796851
  C        -3.0333622349       10.2068952253       27.8323905544
  H        -1.7575642795       11.1003193295       30.7617395945
  C        -2.1120160029       13.9438978901       31.5856241070
  H         6.0719726456       15.3638516891       20.5100971847
  H         4.6722982631       14.3239167458       20.6606052683
  C         6.3962248699       13.3489112384       19.7037019581
  C         3.2236377370        7.5747029913       16.1484692308
  H         2.1179644331       11.2549866159       28.9836586112
  H         1.2139600169       10.7700687565       30.3668416678
  C         2.7789250580        9.4505731410       29.8801723693
  H        -2.9923005385       10.8892640864       27.0193486932
  H        -3.1941574573       10.7725220868       28.7574522727
  C        -4.2323382503        9.2686654422       27.5933811547
  C        -2.1435540376       15.3542539952       31.7496488016
  C        -2.1501822665       13.1195691195       32.8149708965
  H         7.2769684361       12.9126473010       20.1660149159
  H         5.6667037387       12.5619979816       19.5795365617
  C         6.6073485294       13.9264790825       18.3017111976
  H         2.6771208184        6.6767541748       16.0598679160
  C         3.6682321051        7.9607886464       14.9041131155
  H         3.0667919068        8.7991468616       29.0988123833
  H         2.2118630213        8.8313206402       30.6289289044
  C         3.9930699623       10.1108224779       30.5227325075
  H        -3.9020292238        8.5656198489       26.8066878887
  H        -4.4211489034        8.6519070686       28.4506745028
  C        -5.4823768324       10.0293308550       27.0777738124
  N        -1.9360118186       16.3122957585       30.7043177611
  C        -2.3552329968       15.9441236588       32.9646113849
  C        -2.3869703779       13.7170395296       34.0787552311
  H        -2.0401088041       12.0445536571       32.6885382063
  H         7.0507078778       14.8383316414       18.4652857234
  H         7.3040682460       13.2168703811       17.7531767380
  H         5.7255255775       14.1443222697       17.7499532913
  S         4.1165308339        9.5543455539       14.3372465087
  C         3.6683861243        6.9471400256       13.7993527309
  H         4.1576635359       11.1425745246       30.2281830212
  H         3.7670254229       10.1131054320       31.5434168488
  C         5.2162284023        9.3183280917       30.1279488563
  H        -5.4164907235       10.9258704910       27.7213457933
  H        -6.3890782308        9.5842139456       27.5298106238
  C        -5.7091304971       10.2625962266       25.5825745372
  S        -2.0140184210       17.7565949523       31.3723293369
  N        -2.5158660261       17.3216594743       32.8517796995
  C        -2.5452381540       15.2280767179       34.1521409027
  H        -2.2608058089       13.1266909889       35.0085449230
  C         4.3855749392        8.8343415312       12.7030258908
  N         4.1322961312        7.5236913643       12.6870212884
  O         3.4807868447        5.7803993924       14.0141894592
  H         6.1410838871        9.8555087619       30.3847858927
  H         5.2987410379        9.2125758853       29.0385153530
  C         5.2894645190        7.9453021407       30.7749345910
  H        -4.8181648706       10.7543045215       25.1467519700
  H        -5.7661812490        9.2632365015       25.2524634815
  C        -6.8499694071       11.1985216625       25.2386410328
  C        -2.7291109320       15.9837002406       35.3610308820
  S         5.0187884147        9.6866313369       11.2985594744
  C         4.1301223612        6.7377142405       11.4896538316
  H         5.0500941484        8.0083231671       31.8412276669
  H         4.4899545120        7.4052904026       30.4490002580
  C         6.5094957074        7.0792427686       30.4214723722
  H        -6.8347585347       11.7439951355       24.2664703160
  H        -6.8001727856       12.1081329994       25.9001185057
  C        -8.1306741005       10.4706086236       25.3383470623
  H        -2.5000366771       16.9857509373       35.2328358587
  C        -3.2435607084       15.6371943501       36.5588174134
  H         4.8924224706        7.1122016361       10.8218737517
  H         4.4204145736        5.6574421416       11.7673241544
  C         2.8045663367        6.7752501403       10.7612525456
  H         7.3812939921        7.5751813876       30.8287036675
  H         6.5652632373        7.1075606121       29.2915781419
  C         6.4978483743        5.7491234103       31.1489207365
  H        -8.7123855689       10.6749009854       24.4294823938
  H        -8.0290919860        9.3833152771       25.3608356020
  C        -8.9885772830       11.0767588049       26.4917078806
  S        -3.9301437838       14.1160667240       36.9979447789
  C        -3.4195564676       16.6769202110       37.6033776152
  H         2.9331900108        7.7349659215       10.1927825685
  H         2.7438165316        5.9301931390       10.0841856402
  H         1.9347428939        6.8567924258       11.4637138999
  H         7.1058624396        5.8196801101       32.0614269914
  H         6.8937512636        4.9854766622       30.4812331696
  H         5.4058813787        5.5185674668       31.4522322275
  H        -9.0088945918       12.1850418963       26.6577724316
  H        -8.8096402473       10.6750734724       27.5033233209
  H       -10.0839558214       10.8834000675       26.2442332550
  C        -4.2611861688       14.8411283747       38.6091738840
  N        -3.9876669392       16.1610684495       38.7209661980
  O        -2.9974900971       17.8310042978       37.4475180602
  S        -4.8750544576       13.9978235252       39.9023767759
  C        -4.1018719146       16.9724716204       39.9592124505
  H        -4.0278544873       18.0472636359       39.6381132261
  H        -5.1181267532       16.7994045993       40.4801359699
  C        -2.9849796325       16.7179244901       40.9117191832
  H        -2.7208416899       17.6359558371       41.4821004457
  H        -3.2706562002       15.9743411637       41.6420165573
  H        -2.1477060064       16.3042980081       40.3606074034
