352
i=
  H         2.5560832361        3.7737042087       12.4913986173
  C         2.6979468082        2.6885522014       12.6008810527
  H         1.9053269178        2.1737083909       13.1770367590
  C         2.5463986956        2.1021624071       11.1323859008
  C         4.0459725047        2.3860605891       13.3182361507
  C         3.7358260483        2.4970879582       10.2564858480
  H         1.5850567723        2.5202215674       10.6159427920
  H         2.4827656438        1.0356820874       11.2950415458
  H         4.2573818923        1.3814727656       13.5031351959
  H         3.9231588371        2.7741601830       14.3327307620
  H         5.0219187871        2.8092893514       12.9461651355
  C         4.5171342975        1.2558933283        9.8637507439
  H         3.2887088172        2.9753996108        9.4231369389
  H         4.3178860823        3.3178180808       10.6747718323
  C         5.2208442387        1.4567100605        8.5024985291
  H         3.9379439518        0.3636924684        9.8830360229
  H         5.2279308965        1.2179692914       10.6480635975
  C         6.4303501034        2.4167331342        8.6453477984
  H         4.5144121900        1.9610234600        7.8134789982
  H         5.4095627803        0.4929428043        8.0404409139
  C         7.6669460488        1.7766390438        9.1894677117
  H         6.5699159929        2.8910788180        7.6468303023
  H         6.0931309284        3.0829090294        9.4467705637
  C         8.8883345205        2.6790321140        9.3405157791
  H         8.0314371691        0.8505517401        8.7549259792
  H         7.3226664110        1.6188605691       10.2415426695
  C         8.5386045414        3.9906679291       10.0559279222
  C         9.3660971153        3.4089955039        8.0819060401
  C        10.0446013479        1.9264530352       10.1648611646
  C         8.6592409951        5.1045757064        9.2480713667
  C         8.0333648394        4.3698670041       11.3159002200
  C         9.1917925086        4.7628221104        8.0163455805
  C         9.9954927262        2.8554787782        6.9865669004
  H         9.7002319438        1.4262067005       11.1164908858
  H        10.5188407190        1.1197749431        9.5698658023
  C        11.2383998761        2.7870079123       10.5215578705
  S         8.1851431263        6.5775237610        9.9533589252
  C         7.7063288054        5.7298530788       11.3834184187
  H         7.8565741134        3.6036521772       12.0402678022
  C         9.6029272668        5.4586722781        6.9040876675
  H        10.0756866327        1.7801882141        7.0043658425
  C        10.3364596259        3.5643695881        5.8384639481
  H        10.9596888056        3.7120746722       10.8293574109
  H        11.8161310048        3.1080064088        9.6355623737
  C        12.0816424311        2.1050631989       11.6026446290
  C         7.2225996150        6.4411396152       12.6752702625
  C        10.1427403206        4.8752939566        5.7476907241
  H         9.4285110888        6.5320627724        6.9302020250
  C        10.8080821230        3.2141844376        4.5942658109
  H        13.0466682961        2.5640581040       11.3222110749
  H        12.0221055246        1.0299499547       11.4865975458
  C        11.7796610766        2.5713415455       13.0172751459
  C         7.1929649009        7.8018097958       12.9370655171
  C         6.8957147996        5.5756430913       13.8994761218
  C        10.4817417564        5.6521511679        4.4754342049
  C        10.9313261737        4.3206939768        3.7915669868
  S        11.1755124374        1.6686067332        3.8650371552
  H        12.5719440046        3.3387779190       13.2161090483
  H        10.8333833032        3.0077838845       12.9836528822
  C        11.8055142108        1.3855806375       13.9974893063
  N         7.5435854536        8.7973232445       12.0040794965
  C         6.9768578292        8.4040440187       14.2090889256
  C         6.6135379940        6.1695109611       15.1281111572
  H         6.8497677015        4.5455061254       13.9120343981
  C        11.6673844282        6.5050877662        4.6864670628
  C         9.3161458453        6.4368137845        3.8656037090
  C        11.3801434232        3.8896015030        2.5351962850
  C        11.5359449453        2.5175571819        2.3848529255
  H        12.8528542748        0.9258845938       13.8642280653
  H        11.1126095227        0.6531841827       13.6486887370
  C        11.5406396324        1.8566201099       15.4263385300
  S         7.2539696109       10.2629824996       12.6820732226
  N         7.0039589874        9.7688226964       14.1406011329
  C         6.6289069588        7.6472020886       15.3725770673
  H         6.2377689009        5.5219384049       15.8988895380
  H        11.2834914711        7.3301402880        5.3607398370
  H        11.8914136444        6.8718737573        3.6648291230
  C        12.8307373304        5.7138918856        5.3975228539
  H         9.0321341690        7.1660702492        4.6459813731
  H         9.6201204868        6.9158507985        2.9206973910
  C         8.0675719839        5.5329627415        3.5138498467
  H        11.5418893490        4.6299061813        1.7927152947
  C        11.8635640674        1.7843228387        1.1076188342
  H        11.0470743608        2.8368095854       15.3662785670
  H        10.8325122686        1.2081894197       15.9605442680
  C        12.7992085068        2.0442921267       16.3237178423
  C         6.2957574130        8.3129800723       16.5440171207
  H        12.4278588879        5.2123399351        6.2929349349
  H        13.2666186831        4.8767775853        4.8309770886
  C        13.9893173807        6.5648044556        5.9170360313
  H         7.7993577363        4.8605001735        4.3385715464
  H         8.2798978700        4.8080095627        2.7047016558
  C         6.7483903892        6.1659934587        3.1466540487
  C        11.7928049020        0.4011117996        0.9646208681
  C        12.1756989660        2.5572856476       -0.1056898231
  H        13.4877750556        2.8082301463       16.0360927319
  H        13.3512191890        1.1122044327       16.2806199253
  C        12.6416490364        2.2874257919       17.8227980071
  H         6.3832634128        9.3536672513       16.4107177576
  C         6.1093349236        7.8445552995       17.8363411284
  H        13.6507764499        7.2498890319        6.7044455555
  H        14.3590232498        7.1864240818        5.1537464106
  C        15.2207626053        5.7905932554        6.3449087160
  H         5.9887999604        5.4971040276        3.5248216677
  H         6.7221495427        7.0536440689        3.8108734229
  C         6.6115392381        6.5624489106        1.6917049588
  N        11.4732527225       -0.4868758349        1.9771228253
  C        12.1299932269       -0.2472633682       -0.2066764208
  C        12.4769103088        1.8860508604       -1.3221574162
  H        12.2291999298        3.6323255614        0.0045051664
  H        13.5805513693        2.2834904408       18.3192262692
  H        11.9918110364        1.5775146465       18.2970126936
  H        12.1955816883        3.2646945671       17.9537440106
  S         6.0371937270        6.2245905351       18.4366673670
  C         6.0715804193        8.9325754376       18.8690985575
  H        14.9997343181        5.2514705059        7.2529711032
  H        15.4220444771        5.0719038574        5.6016680593
  C        16.4701156165        6.5677668298        6.6147304878
  H         6.8111648681        5.7757772430        1.0264457660
  H         7.3360908763        7.3042318811        1.5070461633
  C         5.1839659401        7.0573671315        1.2430059404
  S        11.4333515021       -2.0384399400        1.3993785655
  N        11.9456328800       -1.5955074808       -0.1078882629
  C        12.4992696432        0.4167647938       -1.4219254974
  H        12.8161742126        2.4832774362       -2.1143297421
  C         5.8173101457        6.9181838252       20.0192831929
  N         5.6362506504        8.2878176506       20.0028931317
  O         6.1333303454       10.1288925028       18.6168243375
  H        16.7204239137        7.2467685142        5.7916654586
  H        16.3494428872        7.1716248185        7.5006679292
  C        17.5706245552        5.4621777659        6.6399563526
  H         5.0000200152        7.1348456921        0.1878090599
  H         4.4710228514        6.3411860191        1.6186553522
  C         4.9939113225        8.5638645519        1.7197262148
  C        12.7810351036       -0.4224955482       -2.5721972282
  S         5.5397152805        6.0408176183       21.5056859340
  C         5.4036220892        9.0859556501       21.2224403691
  H        17.2877176381        5.1111821204        7.6230499345
  H        17.6219370511        4.7363126219        5.7865807099
  C        18.8830677028        6.0677960955        6.9597311804
  H         5.8575811632        9.1451837803        1.6201154335
  H         4.8801456808        8.5921040457        2.8206728684
  C         3.8389550467        9.3124918384        1.1906622693
  H        12.2148317505       -1.3167802715       -2.6268255323
  C        13.3053877345       -0.1334923556       -3.7998344838
  H         4.6153251987        8.7305580433       21.9222196202
  H         5.1149645111       10.1120339462       20.8911730309
  C         6.7932426276        9.1761735768       21.8732911832
  H        19.3642749347        5.5489215454        7.7546395437
  H        18.6856302282        7.1379288830        7.1108115036
  C        19.8731930792        6.0143696689        5.7774668859
  H         3.8761534702        9.3072499515        0.1063211650
  H         2.8465876638        8.8880440820        1.4815268976
  C         4.1309259138       10.8033338858        1.6304346680
  S        13.9491067457        1.3796060017       -4.4089644864
  C        13.2333979368       -1.1985248078       -4.7989228274
  H         7.5508418561        9.5600817659       21.1904578663
  H         7.0951536243        8.2336723906       22.2438551247
  H         6.7459800901        9.9909454784       22.6224986426
  H        19.4076847884        6.2445997154        4.8316693413
  H        20.7684967517        6.6819600594        5.9832730177
  H        20.1870850230        5.0122728376        5.5727071902
  H         4.1756061157       10.7953616663        2.6779173831
  H         4.9865471780       11.3312641690        1.2205520054
  H         3.2282162225       11.3935289715        1.3031865545
  C        14.2530087463        0.5212725687       -5.9501220327
  N        13.8505577061       -0.7830797551       -5.9992720082
  O        12.6726831486       -2.2973686088       -4.6631124422
  S        14.7681351325        1.2822687113       -7.5538830379
  C        13.8012448972       -1.6197524310       -7.1675992889
  H        13.8241545238       -2.6758776740       -6.8553789921
  H        14.6424278510       -1.4308481040       -7.8310972105
  C        12.5838420175       -1.2846775866       -7.9376913875
  H        11.5824994761       -1.7470789732       -7.7354759841
  H        12.7247981531       -1.6677652343       -8.9200210396
  H        12.4193993830       -0.2132962938       -8.1553052231
  H        -2.3065679367       12.3992589580       16.9485847526
  C        -2.7763938234       13.3495617518       16.5225409804
  H        -1.9494797910       13.9716558550       16.2474852188
  C        -3.6313697146       14.0401843713       17.6397136472
  C        -3.5337117300       12.8772502347       15.3039046515
  C        -3.8192523470       13.2869372234       18.9941958147
  H        -3.0970906925       14.9471030109       17.9512254659
  H        -4.5814829679       14.2797299763       17.1617100548
  H        -3.0622110246       12.0479815360       14.8100281568
  H        -4.5591517227       12.5355915080       15.4892871585
  H        -3.5901211692       13.6583774291       14.5349672002
  C        -2.5600410149       13.1707617331       19.7629598735
  H        -4.4436439719       12.3753347673       18.9442212765
  H        -4.3958369210       13.9877885211       19.6116205753
  C        -2.9034236481       12.8822334532       21.1947466962
  H        -2.0861238957       12.3702811325       19.2815258198
  H        -1.9235842501       14.0766074762       19.6312214116
  C        -1.8121067553       12.2239488973       22.0473549622
  H        -3.6342044372       12.0857915530       21.2274076792
  H        -3.4147080574       13.7114675892       21.7385290666
  C        -0.7746172500       13.2208930243       22.6155864488
  H        -2.1358731205       11.7167309236       22.8774930729
  H        -1.3128291656       11.5741604596       21.3568332451
  C         0.4882052567       12.6810816682       23.3382211615
  H        -0.4829116178       13.8615723782       21.7716415819
  H        -1.2109819652       13.9703106213       23.3069737459
  C         1.0107499197       11.4465988009       22.6235510943
  C         0.1275806122       11.9715516453       24.5907310599
  C         1.5238735357       13.8723804065       23.4899128876
  C         0.9942334302       10.3746687009       23.4795648244
  C         1.3473529064       11.0441201991       21.2942870407
  C         0.3647102128       10.6665560525       24.7355918477
  C        -0.3490093195       12.6303617268       25.6938703045
  H         1.6006144202       14.4983643946       22.5483850237
  H         1.1258128063       14.6044789506       24.1808546587
  C         2.9916044960       13.2666152337       23.7909385591
  S         1.6730655807        8.9073757955       22.8101143648
  C         1.6778032331        9.6957210757       21.2464874537
  H         1.2848370438       11.8168045581       20.4703373251
  C         0.0833929864       10.0161683835       25.9023269584
  H        -0.4367978995       13.7116345177       25.6164064594
  C        -0.6228130631       12.0407276950       26.8792056108
  H         3.2785452269       12.6305311909       22.9588569460
  H         2.9607486461       12.5787859862       24.5901806135
  C         4.0803360465       14.3187368751       24.1199646418
  C         2.1899871028        9.0381644843       20.0618706016
  C        -0.3899459272       10.7067116360       27.0210993471
  H         0.3627145957        8.9601544837       25.8717869251
  C        -1.0036503146       12.4574039088       28.1381457027
  H         4.4806552711       14.0573666027       25.1001975835
  H         3.6189787684       15.3480710195       24.2710005637
  C         5.1957542841       14.5519116087       23.0335004977
  C         2.1698037416        7.6297538097       19.6807078493
  C         2.5105739210        9.8690808782       18.9692649863
  C        -0.7921735400        9.9695122436       28.3112807214
  C        -1.0778838284       11.3623989823       28.9820229049
  S        -1.4903385588       13.9038264632       28.8332350398
  H         6.0267670886       15.1830092547       23.4446156149
  H         4.7682695028       15.1629884635       22.2270442637
  C         5.7224573010       13.1991826345       22.5161176299
  N         1.9025619602        6.5913996738       20.6013897747
  C         2.4134700459        7.0826966982       18.4764696836
  C         2.8750709277        9.3259911475       17.7503113590
  H         2.6635291701       10.9400601042       19.1721817720
  C         0.3723847046        9.1025590084       28.9531282741
  C        -2.0297539231        9.1188583892       28.1058343808
  C        -1.4687716662       11.7943899667       30.2843870058
  C        -1.6368637137       13.1458015255       30.4004823663
  H         6.8134183330       13.3470466114       22.4291957682
  H         5.4533106306       12.4202505970       23.1813527334
  C         5.2020719166       13.0967506192       20.9983270247
  S         2.0325091387        5.1672172823       19.9753213527
  N         2.5256938623        5.6731673803       18.4990711959
  C         2.8255064085        7.8843051830       17.3886326983
  H         3.3223700128       10.0141847626       17.0568280122
  H         0.6949031736        8.4429423660       28.2051540878
  H        -0.1297879340        8.6957324047       29.8475451355
  C         1.6255914254        9.8811264808       29.3381151240
  H        -1.9315658587        8.4239224799       27.3355322332
  H        -2.1978608317        8.7262646343       29.0577375151
  C        -3.3029748184        9.9285004803       27.7711073872
  H        -1.5505385468       11.1153014315       31.0783483522
  C        -1.8883347566       13.9763380448       31.6053750426
  H         4.5029979539       13.8406708862       20.6612358784
  H         4.6673310129       12.1193859112       20.9654475242
  C         6.3007456819       13.1983707465       19.9939191457
  C         3.0332526115        7.3253228001       16.0852528880
  H         1.9832731058       10.2729753354       28.4070506461
  H         1.3588247677       10.6578883140       30.0527641309
  C         2.7246847362        9.0622063666       29.9834914866
  H        -3.1522811188       10.5168217959       26.8258541045
  H        -3.5838743188       10.5875543916       28.5853426908
  C        -4.5227157755        9.0615862823       27.6579852520
  C        -1.7943295898       15.3456691113       31.7024669625
  C        -2.1399822836       13.2531654808       32.9040995051
  H         6.8167437899       14.0852418072       20.2900541733
  H         6.9907247576       12.3061055904       20.0886403882
  C         5.8288991528       13.3532855675       18.5011224540
  H         2.9184219011        6.2947247402       16.0955053418
  C         3.4743851857        7.8562089606       14.8951296605
  H         3.3107717111        8.5067161120       29.2037034149
  H         2.3015077783        8.3174430454       30.7255779509
  C         3.7341432057        9.8820718202       30.7435096980
  H        -4.3540941356        8.4385676002       26.7813823668
  H        -4.7692576218        8.5309629857       28.5166534062
  C        -5.7157119993        9.8619640376       27.1975043397
  N        -1.3825857798       16.1886932330       30.7000154937
  C        -2.1248408551       16.0731140729       32.8989732525
  C        -2.3152728978       13.9761092467       34.1034280681
  H        -2.0457904759       12.1640879057       32.9025831996
  H         6.5317624477       14.1126216077       18.0230141128
  H         6.0257531127       12.4253942779       18.0319773056
  H         4.8309521284       13.6443245724       18.3746402875
  S         3.5245396390        9.4843617128       14.4463113732
  C         3.5783564447        6.8540272994       13.8119585569
  H         3.9169493749       10.8899884850       30.2392183077
  H         3.5530862870        9.9982334725       31.8025384207
  C         5.1530609807        9.3426873803       30.6278839131
  H        -5.6795061704       10.8288638399       27.7114750817
  H        -6.6743241616        9.3989607510       27.4107369290
  C        -5.7340143703       10.0152603470       25.7052025216
  S        -1.5409670918       17.7353077291       31.2542625893
  N        -2.1258526975       17.4729837178       32.7441930233
  C        -2.4295862277       15.4407312053       34.1277354988
  H        -2.6597265603       13.4869027942       34.9883609340
  C         3.7852456581        8.7784909885       12.7931479506
  N         3.8697365895        7.4104057760       12.6639083553
  O         3.4687558985        5.6345945489       14.0801802640
  H         5.8697301299       10.0961251117       30.9742441737
  H         5.4582666224        9.2506743362       29.5831025875
  C         5.4818687636        8.0960386934       31.4908618995
  H        -4.8345826279       10.4942245909       25.3328111134
  H        -5.6442086167        9.0598774268       25.1903551040
  C        -6.9111765669       10.8414129005       25.1181700476
  C        -2.7388527960       16.2755140478       35.2271705692
  S         4.0655372955        9.7470598388       11.3867629010
  C         4.0650230839        6.6677370842       11.4271440075
  H         6.1309947396        8.4921805230       32.2893443159
  H         4.6126952009        7.6887817812       32.0228123706
  C         6.2840899429        7.1535040214       30.6731885516
  H        -6.8419616553       10.9720326007       24.0321966531
  H        -6.8277091802       11.8883568412       25.4946466583
  C        -8.3196927675       10.2462163912       25.3421410597
  H        -2.6331591323       17.3409083431       35.1816846392
  C        -3.3442161382       16.0561202807       36.4637576662
  H         4.7335877014        7.1289363163       10.7333326019
  H         4.5803431034        5.7294202094       11.4583367251
  C         2.7336779475        6.5355435636       10.7714946213
  H         7.1908745654        7.5563429600       30.1762435233
  H         5.6862814669        6.8399273262       29.7595822417
  C         6.6681875284        5.9286005615       31.4491477011
  H        -8.8762971523       10.2727237827       24.3776617848
  H        -8.2580104326        9.1374181186       25.4699752663
  C        -9.1680567559       10.8312420557       26.4192477538
  S        -3.8425131037       14.5166913691       37.0843173855
  C        -3.4504127259       17.1374688443       37.4772416732
  H         1.8174615975        6.6564408799       11.3598553475
  H         2.6330592054        7.3035153904        9.9576581331
  H         2.5972461774        5.5349720815       10.2781875204
  H         7.2341381781        5.2097040356       30.9502713675
  H         5.7205884156        5.5097031449       31.6707616933
  H         7.0576180982        6.2466594290       32.3991079681
  H        -9.3433106426       11.9145745852       26.2650988006
  H        -8.7404926257       10.7376154261       27.3421302416
  H       -10.0783000460       10.2338666399       26.4987976775
  C        -4.0511164571       15.2984739053       38.6199800112
  N        -3.8808846923       16.6541061610       38.6598625588
  O        -3.0313595680       18.3080264191       37.3056594178
  S        -4.8456553612       14.4547509728       40.0378924214
  C        -3.9800582894       17.5459503087       39.8275429605
  H        -4.2623443888       18.5003868021       39.4710253142
  H        -4.8189267662       17.2278982448       40.4409467480
  C        -2.7232302975       17.5693816779       40.6932504489
  H        -2.1485572700       18.4069819850       40.3859521281
  H        -2.9038330350       17.7378573815       41.7651036839
  H        -2.1683889081       16.6634916540       40.4839521111
