352
i=
  H         4.9105645139        2.2369128597       12.4469764741
  C         3.9886522414        2.8412719111       12.5528979927
  H         4.4330719635        3.8428148691       12.4952978294
  C         2.9820496566        2.6037985147       11.5085605302
  C         3.4956803981        2.7273007040       14.0866817029
  C         3.6633287961        2.7475754205       10.0215641946
  H         2.2588571651        3.3624500412       11.4545308363
  H         2.4559692662        1.6808808203       11.5369137752
  H         3.8267512809        3.5609939241       14.7061159409
  H         3.8898049285        1.7504480148       14.4713598987
  H         2.3829361952        2.7721535728       14.1501643065
  C         4.1669729721        1.5585489546        9.4158577497
  H         2.8127941284        3.0691801930        9.4907485951
  H         4.2968715231        3.6179541627       10.2564080441
  C         5.0724115937        1.7539880595        8.1279364494
  H         3.4062557257        0.8627605454        9.2331901288
  H         4.7996665941        1.1516825453       10.1647594363
  C         6.3153036680        2.5032480604        8.3294549829
  H         4.4987539662        2.3603827034        7.4965349174
  H         5.1531851528        0.9378053238        7.5125745467
  C         7.7583654813        1.8213301287        8.6703098148
  H         6.5800384928        3.0254064335        7.4393095528
  H         6.2142075380        3.2777686170        8.8955823753
  C         8.9449771148        2.7567170717        8.9642419090
  H         7.8948708966        1.2336123092        7.7524084563
  H         7.6234660848        1.1685774536        9.5680439020
  C         8.5414589702        4.0302789487        9.7535711559
  C         9.3320334613        3.5492497832        7.7773625843
  C        10.1574071917        2.0071275998        9.5827311549
  C         8.7570157415        5.1788477162        9.0147648644
  C         8.0925211575        4.4217191844       11.0273072358
  C         9.2099970768        4.8684486210        7.7631844227
  C         9.8062226562        3.0207539857        6.6125017657
  H         9.9118613861        1.4212371430       10.3663677576
  H        10.6962456371        1.5168417369        8.8827570438
  C        11.2289592072        3.0288773566       10.1703871744
  S         8.3562242465        6.6694742189        9.7881814314
  C         7.9937690367        5.7514130585       11.2792689710
  H         8.0488318421        3.5138937410       11.8485052082
  C         9.5521030324        5.5435152552        6.6374265375
  H         9.9633574148        2.0745555097        6.5891698288
  C        10.0696824573        3.6697902576        5.4487528370
  H        10.6209212322        3.8110324586       10.6021259851
  H        11.7038912329        3.4259187727        9.2709989197
  C        12.2125683474        2.3427833486       11.1238626379
  C         7.6319054042        6.3850212774       12.5723450900
  C         9.9908095674        5.0107354249        5.4198868091
  H         9.5957399606        6.5006680701        6.6357704066
  C        10.4980000742        3.2951788597        4.1819837865
  H        13.0757511162        2.8438105848       11.0544920044
  H        12.5560687554        1.3959541123       10.6595197989
  C        11.5351491290        2.1013624299       12.4496465428
  C         7.6550767684        7.8273103083       12.8731709856
  C         7.3384928016        5.5228860721       13.7339644309
  C        10.3989956822        5.6598999916        4.1612049925
  C        10.6403731859        4.3623994421        3.4086137706
  S        10.9149028092        1.7550892974        3.4625147689
  H        10.9252794885        2.8731227417       12.8922014875
  H        10.9363343920        1.1254294545       12.3785801360
  C        12.6367810779        1.8992484869       13.6012449994
  N         8.0701662172        8.7587128808       11.8588251602
  C         7.3412390639        8.4273285168       14.1407519699
  C         6.9738511285        6.0485210288       14.9809134083
  H         7.3036422485        4.4615171221       13.6326583578
  C        11.6873067432        6.4423111407        4.3922113697
  C         9.3119954409        6.5582028533        3.4930830810
  C        11.1348566822        3.9739223287        2.1258384898
  C        11.2456980470        2.5797497711        1.9303321040
  H        13.3456421177        2.7439335668       13.3247303799
  H        13.0972373796        0.8662179910       13.3413814261
  C        12.0956143763        2.0835420718       14.9862457849
  S         8.2331167542       10.2483965127       12.5436372938
  N         7.6137491703        9.7339058968       14.0263473527
  C         6.9990031309        7.5241998330       15.2130904153
  H         6.6784279448        5.4634481982       15.7793961890
  H        11.4620287348        7.1580498763        5.0063271897
  H        11.9476761336        6.7663538198        3.4479871013
  C        12.8680957518        5.5686577174        4.9538291425
  H         8.9750898550        7.1858697343        4.2317589903
  H         9.6851355074        7.1669382897        2.8325317651
  C         8.2389250390        5.6878391639        2.8895088923
  H        11.3595318224        4.8155992858        1.3807457700
  C        11.6215793134        1.8149809653        0.7204303486
  H        11.7989093914        3.1292430661       15.1881856528
  H        11.1934528720        1.5296509055       15.1506218949
  C        13.1613654502        1.6925685204       16.1201013080
  C         6.8970179150        8.2588846550       16.5370244005
  H        12.4750918665        5.1401933834        5.8328606569
  H        13.1360119985        4.7602540113        4.2983786236
  C        14.1580313207        6.4054279555        5.1761445180
  H         7.7461375165        5.1308877748        3.6649685614
  H         8.5373973928        5.1054645655        2.0865860618
  C         6.9338774418        6.4729862005        2.2147411558
  C        11.8139807850        0.3597841526        0.6363765969
  C        11.9554202494        2.5359237361       -0.5414202977
  H        14.0961497282        1.9110685339       15.8357537286
  H        13.1379481958        0.7159224821       16.2125917577
  C        12.7487008697        2.3426198107       17.4714166294
  H         7.4481571339        9.1333492334       16.4520048954
  C         6.5118807978        7.8297050699       17.7464846762
  H        13.9479585064        7.1723218942        5.8962204718
  H        14.6275151403        6.9432391795        4.3303785807
  C        15.2600504450        5.5115028546        5.8586941506
  H         6.6282386671        7.2947837486        2.8830354642
  H         7.3436462519        6.8387315896        1.3063139436
  C         5.8559601553        5.5811698856        1.9039655596
  N        11.4574135963       -0.4978269467        1.6719152157
  C        12.2091215250       -0.4183779831       -0.4736823685
  C        12.3360474836        1.8477382830       -1.7294407429
  H        11.9319041901        3.6328444555       -0.7161299469
  H        13.5098408599        2.2118068619       18.1720614249
  H        11.9602336937        1.8724730342       17.9416670414
  H        12.4921257697        3.3626841028       17.3884315689
  S         6.0758930494        6.2784454788       18.2985488032
  C         6.4629593524        8.8865054175       18.7265243786
  H        14.6367021777        4.8893349296        6.6404485850
  H        15.4575159730        4.6840795511        5.0888601825
  C        16.3842918010        6.3295336925        6.3450715803
  H         5.7631169477        4.7074509162        2.4235173590
  H         5.8834203676        5.3150260560        0.9047707746
  C         4.4577780086        6.3613315475        1.9710869124
  S        11.6718808467       -2.0872039339        1.2965802245
  N        12.1990828990       -1.7358376015       -0.2333395081
  C        12.4452863910        0.3059820919       -1.7327826157
  H        12.4390328248        2.3581823467       -2.6925313748
  C         6.0418874978        6.9368722778       19.8770074540
  N         6.2083526091        8.2508723954       19.9149320269
  O         6.6378368643       10.1042717075       18.5417897048
  H        16.8520353326        6.8885588161        5.5912990601
  H        16.0556373972        6.9789330081        7.1216169741
  C        17.4302063030        5.3509852351        6.9727177095
  H         3.8331796572        5.6364651306        1.3919592577
  H         4.0859812651        6.3383208195        3.0356811121
  C         4.3961032215        7.5954345549        1.1578241287
  C        12.7515280074       -0.5766577056       -2.8219550894
  S         5.5571893909        6.0754256902       21.3342857845
  C         6.1370442895        9.0399262946       21.1351245081
  H        17.1575530049        5.1319007158        7.9600977253
  H        17.4493306633        4.5138232331        6.3874963975
  C        18.7650090529        6.0745407380        7.1168462392
  H         3.8262277484        7.4162095639        0.3302699173
  H         5.1695292388        7.9980440260        0.7481865119
  C         3.8229008097        8.7570024206        2.0161072366
  H        12.6100836050       -1.5285026867       -2.6988313367
  C        13.2881720838       -0.2960831654       -4.0663419016
  H         5.4892022050        8.6780645830       21.9079121272
  H         5.7350587030       10.0211472762       20.8872345726
  C         7.5995873323        9.2673962968       21.6714925448
  H        19.0557970540        5.7553029200        8.0972920821
  H        18.6879924016        7.2686868494        7.1748356292
  C        19.7922870967        5.8857355606        6.0308458981
  H         2.9218209065        8.4455670131        2.4088304130
  H         4.4946714499        8.9406844824        2.7210381302
  C         3.6371305959       10.0312757775        1.1649087362
  S        13.7698208725        1.1369721578       -4.7889461479
  C        13.3458151292       -1.5029339394       -4.9267031758
  H         8.4113634164        9.3463633049       20.9910229260
  H         7.8901240129        8.3399166344       22.2423499516
  H         7.6928587024       10.1164057366       22.2795573590
  H        20.6739919520        6.1433237097        6.4226932025
  H        19.7867059806        4.9601615338        5.5150684073
  H        19.6680366312        6.5863255977        5.2469381366
  H         3.1455466131       10.8501346156        1.6158070797
  H         4.6106808411       10.4538221648        0.9998387620
  H         3.1934709441        9.9273105809        0.1965184359
  C        13.9212280493        0.2730108742       -6.2706411097
  N        13.6606079066       -1.0566510375       -6.1835820332
  O        13.0399020117       -2.6807200695       -4.6852646019
  S        14.1990583809        0.9184182766       -7.8973902381
  C        13.5644617292       -2.1123470169       -7.2730141049
  H        13.9515571215       -2.9966248749       -6.7764989454
  H        14.1901651724       -1.7831837140       -8.0849803834
  C        12.2081457197       -2.4012457248       -7.7086018097
  H        11.4442258176       -2.6495588552       -7.0766447552
  H        12.1618695579       -2.8896096716       -8.5994617643
  H        11.8497536841       -1.4853606780       -8.0552545207
  H        -3.7258780764       15.0747160243       16.3322719287
  C        -3.4012119181       13.9587468075       16.5072187390
  H        -4.3261577769       13.2807618773       16.8835514292
  C        -2.3272884513       13.9531304104       17.7389761125
  C        -2.7392686275       13.3147507798       15.3207225097
  C        -2.9812423396       13.8322179375       19.0566981722
  H        -1.7845274792       13.0676627922       17.4975979636
  H        -1.7904718283       14.8517483993       17.5943282420
  H        -3.4173930789       13.3112896101       14.4983910201
  H        -1.8579224981       13.7176329475       14.9600497729
  H        -2.5197085504       12.2965417237       15.3955994815
  C        -1.8385826067       13.9528961667       20.1099449248
  H        -3.4917903437       12.9611960663       19.2934637330
  H        -3.7996509484       14.5174212492       19.2393664096
  C        -2.3504766793       13.6771499445       21.4910417837
  H        -1.1629416314       13.3156632848       19.8566395158
  H        -1.4879114131       14.8703284617       19.9963588997
  C        -1.3204134332       12.8900410701       22.3147385951
  H        -3.2841891044       13.2080591362       21.4109080441
  H        -2.5364319549       14.5995469049       21.9671140343
  C        -0.2240162613       13.7585070845       22.6869106690
  H        -1.8709270622       12.5832727362       23.2194230240
  H        -1.3106323411       11.9207997728       21.8907356513
  C         0.9209389008       13.0553575638       23.4433924141
  H         0.2961068191       14.2314723618       21.8799538185
  H        -0.4955923148       14.5400421981       23.3726540230
  C         1.3605409116       11.7534733143       22.6974381532
  C         0.5316212687       12.2755925396       24.6146205955
  C         2.1592038704       13.9474452675       23.8397397092
  C         1.1716475829       10.6559121284       23.4271469951
  C         1.8675885512       11.4255055095       21.4123328540
  C         0.6208145196       10.9872668829       24.6587630255
  C         0.0610726832       12.7643979053       25.8168000021
  H         2.2462623663       14.6971518216       23.1539566447
  H         1.9447285749       14.4838943393       24.7159741031
  C         3.3592641614       13.1580716768       24.0620978037
  S         1.6199571513        9.1009945142       22.5555086597
  C         2.1180443359       10.0732361092       21.1694350610
  H         1.8462127965       12.3029148129       20.6953795994
  C         0.1863172967       10.3196194718       25.7687560456
  H         0.0941199392       13.8451123349       25.8028093504
  C        -0.3112199173       12.1222138014       26.9400352531
  H         3.7357804495       12.3718555380       23.4073639722
  H         3.4046478721       12.6720964399       25.1081929777
  C         4.7666550802       13.9823918152       24.1913139408
  C         2.5649264899        9.4220854833       19.9758616019
  C        -0.2871260043       10.7704386442       26.9768859273
  H         0.2154368242        9.3169871404       25.7716997038
  C        -0.7008463508       12.5099188486       28.2074677812
  H         5.4693623581       13.3452398128       24.7845625760
  H         4.6443090060       14.9460887846       24.5649087320
  C         5.4787002549       14.1477066971       22.8062906581
  C         2.5753221243        7.9641701923       19.6350862505
  C         2.8901306444       10.3317666662       18.7168378624
  C        -0.7106197011       10.0689420801       28.2407815363
  C        -0.9306874268       11.4079689419       28.9824706533
  S        -0.9697882835       14.0915062320       28.9348477691
  H         6.0443376139       15.0288098645       22.8762229139
  H         4.6460166385       14.4832303927       22.2779424318
  C         6.1746117658       12.9950781388       22.2961004621
  N         2.3466545004        6.9645879188       20.5648506932
  C         2.8274420566        7.3683900821       18.2966768965
  C         3.1547542261        9.7532692407       17.5036689704
  H         2.8817818662       11.4191137397       18.8648921054
  C         0.5351088652        9.2124051770       28.8546451595
  C        -2.0398694732        9.2665198068       28.0255056032
  C        -1.3438186792       11.8563338566       30.2609604250
  C        -1.3842152343       13.2097727075       30.4285494587
  H         6.9925749410       12.6728436650       23.0023157502
  H         5.5843397074       12.0799456987       22.0608565426
  C         7.0252180275       13.3564348052       20.9370845039
  S         2.4892681602        5.4442309673       19.8912765628
  N         2.6684695864        6.0509566107       18.3260075864
  C         3.0956307938        8.2497023702       17.2082641679
  H         3.2409076779       10.3794844824       16.6661564293
  H         0.9258450949        8.7857617274       27.8971172847
  H         0.0220090833        8.3073256336       29.3530187945
  C         1.6114913918       10.0255207467       29.4900950382
  H        -1.9111585040        8.5290937919       27.1747558056
  H        -2.3125017698        8.7445308361       28.9920206867
  C        -3.2066294533       10.1907826635       27.7039120645
  H        -1.5764598845       11.0519152007       31.0504777987
  C        -1.7732933634       13.9698588304       31.6032986186
  H         7.5996735527       12.4256675440       20.8421615742
  H         7.5662560489       14.2714167911       21.2507771860
  C         6.1266482839       13.5968070349       19.7733867223
  C         3.3203149973        7.6087889932       15.8945409380
  H         2.0070574841       10.7358543808       28.7674358081
  H         1.2771291484       10.5629724992       30.3497583452
  C         2.8756580148        9.0957560798       29.8866267453
  H        -3.1025979668       11.0013445323       26.8600046186
  H        -3.5975195836       10.7720724127       28.5777547688
  C        -4.5154616859        9.3458629715       27.2850716140
  C        -1.9160214563       15.4444996167       31.7450675970
  C        -1.8874667726       13.3183392273       32.9349322355
  H         5.3555224069       12.7720404325       19.4840711864
  H         5.4533501229       14.4890872693       19.6986597814
  C         7.0197567926       13.9635515347       18.5262970893
  H         2.9833445175        6.6238559006       15.9398941540
  C         3.8725966431        8.1511707817       14.7644656971
  H         3.3700023121        8.7353128183       29.0659894463
  H         2.5944398666        8.3473764120       30.5825681016
  C         3.8712800845        9.9442293892       30.7393694525
  H        -4.2133936753        8.5761149285       26.5956619845
  H        -4.8893709868        8.9495882884       28.1719178836
  C        -5.5863379595       10.2644352281       26.5530885271
  N        -1.7509038136       16.3329211401       30.6788668218
  C        -2.2536606131       16.2004860148       32.9487477272
  C        -2.1665626034       13.9849330644       34.1350101853
  H        -1.4952167861       12.2079960378       33.0299547591
  H         6.5498416915       14.2442673611       17.6491794741
  H         7.6322294602       14.8195439264       18.7522697492
  H         7.6552482044       13.1412503165       18.2379080759
  S         4.1592562583        9.7654319916       14.4393639921
  C         4.0540887631        7.2353326620       13.6784270985
  H         4.0063005969       10.8886239349       30.2403230725
  H         3.3502931459       10.1184895790       31.6441809609
  C         5.1566037901        9.2835846279       30.9811377173
  H        -5.0212448159       10.7733233371       25.7190604583
  H        -5.9536799253       11.1108043573       27.1797369586
  C        -6.6473109286        9.4701772164       25.9030408988
  S        -1.9085030905       17.9066958728       31.1186086760
  N        -2.3539215383       17.5063993272       32.6899930064
  C        -2.4711477418       15.4494027509       34.1570540030
  H        -2.1788253064       13.5507855071       35.1388348258
  C         4.3402891907        9.2991707880       12.7244501902
  N         4.2962761154        7.9249596021       12.5710911840
  O         3.6872131437        6.0282677675       13.6071918720
  H         5.7574887025        9.9166279977       31.6564285031
  H         5.8619711542        9.0261461718       30.1429894198
  C         5.1893383441        7.9535469764       31.8519256206
  H        -6.2725424855        8.9090656314       25.1005130517
  H        -7.1505409330        8.8984698681       26.5566805004
  C        -7.9012369345       10.2909577775       25.2900942965
  C        -2.7188706323       16.2974084619       35.3822129406
  S         4.6946258503       10.4111453938       11.4105819370
  C         4.2751284498        7.2334551109       11.3250463720
  H         5.9010883771        8.1988625371       32.6751546463
  H         4.2162171855        7.8997601354       32.2323420879
  C         5.6164642198        6.8036830624       31.0953564486
  H        -7.5626510780       10.6779759166       24.3541690593
  H        -7.8946021002       11.1342117806       25.9625682023
  C        -9.0833272994        9.5178832091       25.3190440560
  H        -2.4135780840       17.2677608518       35.1173960881
  C        -3.1571241033       15.8917864805       36.5944500843
  H         4.8473010002        7.6417358631       10.5131518677
  H         4.7935042264        6.3090527879       11.4267594913
  C         2.8459157638        6.9931728734       10.7950322113
  H         6.6345466497        6.7888075200       30.6509609905
  H         4.9774885698        6.6234544814       30.1956947416
  C         5.4939068309        5.5169739910       31.8998942053
  H        -9.9701941993        9.6440406420       24.5690430064
  H        -9.0411271739        8.4490432834       25.1378657610
  C        -9.7639106594        9.5479744321       26.6591280809
  S        -3.7058283520       14.3995463706       37.1370476609
  C        -3.2588010286       16.9110347412       37.6875867791
  H         2.0917149760        7.4387677393       11.4040712051
  H         2.6644616907        7.5643871529        9.9170546636
  H         2.6108267969        5.9572247255       10.4963595608
  H         6.1701124621        4.8208126198       31.6065504072
  H         4.5543104955        5.0791187365       31.7329557516
  H         5.6905870924        5.6322070997       32.9505830487
  H       -10.3520148296        8.6880412126       26.7771230697
  H       -10.4579518086       10.3792359894       26.6761948793
  H        -9.0444777673        9.6005593137       27.3878866937
  C        -3.9666352130       15.1400660038       38.7112576250
  N        -3.6777768585       16.4110385993       38.8156946581
  O        -2.9615658052       18.1068220695       37.5336737208
  S        -4.6793375193       14.3369473412       40.0398582312
  C        -3.9551000689       17.2454582962       39.9289707702
  H        -4.0289255440       18.2841807291       39.7870815428
  H        -4.7799958090       17.0809832203       40.5654202047
  C        -2.7406456184       17.1327983400       40.9124114101
  H        -1.9311236784       17.3654331756       40.3518438001
  H        -2.8547125074       17.7580960272       41.6389016540
  H        -2.6786257569       16.1826872036       41.2918469100
