352
i=
  H         2.8226185396        1.0594547575       13.4944203949
  C         3.5928442065        1.3634039375       12.7718465722
  H         4.1382493893        0.4635052113       12.4289634848
  C         2.8954695089        1.8992365037       11.5273938008
  C         4.7467475083        2.3169306462       13.2830773586
  C         3.8106127046        2.1240050081       10.3236621234
  H         2.4701698737        2.8604075610       11.7529498072
  H         2.1293768409        1.1566237484       11.3475820094
  H         5.6123635597        2.0670253616       12.6339020776
  H         4.9749971573        2.1112275346       14.2606105639
  H         4.4321836540        3.3468565505       13.1042826380
  C         4.6064685322        0.9466485300        9.7857940454
  H         3.2940113048        2.5457135418        9.4459815546
  H         4.4810568288        2.9196732532       10.6128337466
  C         5.4904844748        1.3632296596        8.6394616982
  H         3.9095380188        0.1720154460        9.4823884273
  H         5.3132956260        0.4868660237       10.6037613320
  C         6.7581734187        2.2796333986        8.9458176396
  H         4.9017293427        1.9621909550        7.8531869640
  H         5.8909734673        0.4856529396        8.1362319661
  C         8.0140107572        1.5013278858        9.5300955097
  H         7.1046816892        2.6883439030        7.9773894884
  H         6.4469384657        3.2115029363        9.5107803675
  C         9.2120087180        2.4614121318        9.6517298493
  H         8.1113481966        0.5666065503        8.9072313688
  H         7.6012123631        1.2487112583       10.5511967628
  C         8.8894671824        3.8003890809       10.2835728410
  C         9.6429213830        3.1227515471        8.3671596852
  C        10.3296466778        1.7795459889       10.4121223873
  C         9.2197259046        4.8741921890        9.5033246631
  C         8.3271389995        4.2511095163       11.5256269561
  C         9.7129644494        4.4546230397        8.2583120345
  C        10.0600422180        2.4706099260        7.1871146295
  H         9.9251949480        1.6188169944       11.4104811647
  H        10.5359535157        0.7750263831        9.9581100729
  C        11.6121565566        2.6545144236       10.5179148590
  S         8.8261274820        6.4297504207       10.1841303998
  C         8.1920905228        5.6111421732       11.6151019584
  H         8.0637922164        3.5000478218       12.2792656500
  C        10.1662402332        5.1180925481        7.1529691443
  H        10.1204798182        1.4506986726        7.1736113703
  C        10.5209693355        3.0632916086        6.0542831270
  H        11.3718848394        3.6884639703       10.8716369148
  H        12.1728493218        2.8748272299        9.6266645309
  C        12.6747969588        2.0487268335       11.4747356913
  C         7.6808005829        6.3606838696       12.8077907940
  C        10.5761157829        4.4238016747        5.9763397591
  H        10.2220547314        6.2207849050        7.1163754876
  C        10.9446277418        2.6144287550        4.8286483188
  H        13.6626693643        2.4395937277       11.2685725928
  H        12.8350916836        0.9955177196       11.2023218135
  C        12.4812377656        2.3951554187       12.8968067269
  C         7.7829865201        7.7491106029       12.9683875838
  C         7.4310362297        5.5789411844       13.9864437117
  C        11.0593153656        5.0767792317        4.6745594734
  C        11.3139677591        3.6859652694        4.0282658622
  S        10.9661154002        1.0751317917        4.0634792624
  H        13.2805504698        3.0691167965       13.1553029631
  H        11.5579778003        3.0592568596       12.9609445796
  C        12.3474978193        1.2506376083       13.8626774443
  N         8.2014214789        8.6333791264       12.0347214050
  C         7.6602783116        8.3250065313       14.2188538732
  C         7.0567089069        6.1306355131       15.1745823045
  H         7.2460285322        4.4782615036       13.9316773044
  C        12.3419373501        5.8757234153        4.8309007012
  C         9.9863481643        5.9172576276        3.9178800317
  C        11.8002119842        3.2634611044        2.7875165928
  C        11.6469209000        1.8945260553        2.6645756969
  H        13.3004330080        0.6448207738       14.0194375590
  H        11.6084946215        0.4823792479       13.5367566177
  C        11.9891342489        1.8316769323       15.1810741057
  S         8.3959867181       10.1149647961       12.7228907576
  N         7.8628807478        9.6932611088       14.1776308414
  C         7.2367870724        7.6001407664       15.3482482833
  H         6.8721708339        5.4667031805       16.0992015354
  H        12.2470374192        6.6800220726        5.6222843497
  H        12.6104531447        6.3494850370        3.8702206432
  C        13.5550212276        4.9808527924        5.2859189152
  H         9.4051395860        6.4049194839        4.6864361957
  H        10.5195670962        6.7103864770        3.3110345856
  C         8.9362077767        5.1047614477        3.0544174669
  H        11.9456541263        3.9634231311        1.9870075730
  C        11.7906409524        1.1491352962        1.3837833555
  H        11.5333862405        2.8352612119       15.1483081455
  H        11.2779834842        1.1550787267       15.7328989226
  C        13.1935252644        1.9096392088       16.0993113102
  C         6.9670361837        8.3382173803       16.5196428953
  H        13.2562077288        4.1832774481        6.0008569936
  H        13.8859241516        4.3872295007        4.4367546253
  C        14.6964960280        5.8098748267        5.8508772239
  H         8.4089467843        4.3663291729        3.6805588858
  H         9.3175390051        4.5684942474        2.2709912815
  C         7.8993724109        6.0554934015        2.4929965298
  C        11.8297801420       -0.2580709205        1.2480706874
  C        12.0687830702        1.9618721008        0.1494047748
  H        13.9622621752        2.4640043307       15.6401335901
  H        13.6401006971        0.8934273657       16.2827895020
  C        12.9717898072        2.4134002714       17.4460556812
  H         6.9334165520        9.4684640367       16.3487986815
  C         6.6245889737        7.9578585047       17.7947404534
  H        14.3291581320        6.3503147952        6.6787358020
  H        14.9972487453        6.4751619083        5.1103389306
  C        15.8634632649        4.8654948201        6.3248215883
  H         7.5268548733        6.6497018076        3.3269559447
  H         8.2715108394        6.8253136858        1.8254494589
  C         6.8742256130        5.2315325394        1.6181414755
  N        11.6502768154       -1.1976355692        2.2710400024
  C        12.0933260811       -0.9033034200        0.0694347132
  C        12.1683459843        1.2794069557       -1.0927264656
  H        11.9226102555        3.0170933047        0.1361256219
  H        12.6858608728        3.4433164230       17.4545214544
  H        13.9887284444        2.3670849741       17.9748395715
  H        12.2096251004        1.8420459611       17.9306255710
  S         6.4000390405        6.3685284139       18.4374559007
  C         6.3993618278        9.0778963760       18.7489123009
  H        15.5134973487        4.3796838868        7.3144405082
  H        16.0012418620        3.9853839813        5.6815073479
  C        17.1658118661        5.6800119625        6.5586953089
  H         6.3521702118        4.5504622751        2.3058897242
  H         7.3516712900        4.5157980873        0.9522695425
  C         5.8861643336        6.0512844655        0.8479723215
  S        11.9316691851       -2.6839973976        1.6674640182
  N        12.2579894381       -2.2593357158        0.1574273765
  C        12.2826685102       -0.1992046873       -1.1423192624
  H        12.2424385603        1.9041150477       -2.0361747859
  C         5.9497824247        7.1297096300       19.9707252312
  N         6.0272127554        8.4907532424       19.9403413128
  O         6.7365793926       10.2318130040       18.5229410103
  H        17.6086792200        6.0627719946        5.6497600504
  H        17.1243226554        6.4728560551        7.3229232470
  C        18.2243343614        4.7395902742        7.0915127531
  H         6.3919095835        6.6773953207        0.1258782303
  H         5.1788417034        5.4283635618        0.3627844277
  C         4.8821443761        6.8932911242        1.6815677161
  C        12.6826685003       -0.8868914230       -2.3107359448
  S         5.6503578296        6.1485351826       21.3991663763
  C         5.9543844986        9.3762629888       21.1158129751
  H        18.0843224967        4.5035056889        8.1478831178
  H        18.2217631802        3.7781695882        6.5107816219
  C        19.5818206765        5.3904894788        6.9877048864
  H         5.2770273961        6.9672516093        2.6091067573
  H         3.8951436436        6.3577606364        1.7208224028
  C         4.6833076602        8.2686342180        1.0283976933
  H        12.3529882604       -1.9347757893       -2.3506211916
  C        13.2308552049       -0.4539611274       -3.5051584936
  H         5.0828786858        9.1721885912       21.7510180565
  H         5.7880683108       10.4761695111       20.8268461341
  C         7.1989807203        9.2833653842       21.8887623051
  H        20.2116969744        5.2353286415        7.8909377730
  H        19.3291432796        6.4786774751        6.8791052363
  C        20.3254810456        4.9967536402        5.7670397047
  H         5.5791889911        8.7971195370        0.8182235000
  H         4.1507217412        8.1175589620        0.0738701385
  C         3.7400214699        9.0855157718        2.0108056621
  S        13.6349262489        1.1634965186       -3.9842082068
  C        13.2925280369       -1.4167870707       -4.6744141650
  H         7.4255269254        8.2768771365       22.2396505560
  H         7.1342770759        9.7882466092       22.7970663038
  H         8.1253377317        9.6733579199       21.4387328638
  H        21.0671158067        4.2367169027        5.9701040500
  H        19.6063332326        4.6245699847        4.9997693890
  H        20.8979783374        5.9063459297        5.5143629246
  H         3.4301824430       10.0432363768        1.5469349474
  H         2.8170107130        8.5229912841        2.1296859008
  H         4.1638804307        9.1585339044        3.0113712786
  C        14.0884302881        0.4361416310       -5.5940746043
  N        13.9150875444       -0.9063837121       -5.7142314147
  O        13.0121182622       -2.6263364074       -4.5806304051
  S        14.5671748184        1.3480975584       -7.0322154675
  C        14.1522094113       -1.5708662859       -6.9839622770
  H        14.6720449334       -2.4832967356       -6.7672256551
  H        14.8273381648       -1.0805860898       -7.6719059894
  C        12.8896708097       -1.8101195885       -7.7284315058
  H        12.3573944849       -2.7084479074       -7.4955881206
  H        13.0229853995       -1.8617667960       -8.8099355711
  H        12.1575038887       -1.0304869240       -7.5296636680
  H        -4.7419455489       14.1607196422       16.5347045650
  C        -4.0132251546       13.3620724581       16.4733993934
  H        -4.5525109808       12.4496757841       16.6703308679
  C        -2.8462235951       13.3481666706       17.4712856851
  C        -3.4229732376       13.2560567934       15.1087087318
  C        -3.3035531395       13.2848729463       18.8817922114
  H        -2.2178455493       12.3984910890       17.2421534891
  H        -2.1787828094       14.1851718736       17.4385878618
  H        -4.0360773205       13.4647066712       14.2509116259
  H        -2.5902056739       13.9416334436       15.0372352777
  H        -3.1857719368       12.2042935092       14.9248694968
  C        -2.1210211646       13.1519969560       19.7969795366
  H        -3.9501659082       12.3906659715       18.9660991199
  H        -3.9861197459       14.0823085336       19.2503719434
  C        -2.4681574390       13.0733661265       21.3173894376
  H        -1.5827405455       12.2347132858       19.6798682199
  H        -1.3999103341       13.9299844221       19.5139811888
  C        -1.2239163627       12.5059888166       22.1240678348
  H        -3.3101889352       12.3087972443       21.2257361857
  H        -2.9178417223       13.9139041240       21.7774778354
  C        -0.1925210077       13.5105801336       22.6927583317
  H        -1.6176549298       11.8943633125       22.9323553805
  H        -0.6572791844       11.8308044234       21.4130979501
  C         0.8932000424       12.8047439848       23.5646140654
  H         0.2734813645       13.9794647562       21.8356973271
  H        -0.6759962434       14.2423288413       23.2935110133
  C         1.3961991831       11.4874997116       22.9498473236
  C         0.4295606355       12.0739199584       24.7870658597
  C         2.2049471616       13.6650744581       23.9254012730
  C         1.0922299508       10.3691552907       23.6619155057
  C         2.0152885038       11.1352538080       21.7648127301
  C         0.4726035217       10.6938672201       24.7978243552
  C         0.0042003662       12.6031690787       25.9661295626
  H         2.5101338296       14.3253839015       23.1334061975
  H         1.9632063468       14.1825505455       24.7361258694
  C         3.4717331648       12.9118225715       24.3445105070
  S         1.5811827565        8.8282561165       22.9501646207
  C         2.0972302227        9.7865673815       21.6095855551
  H         2.3031934637       11.9423454838       21.1346346833
  C         0.0762735261        9.9673318763       25.8775308290
  H        -0.0550005879       13.7195680817       26.0762956386
  C        -0.2977588251       11.8949891403       27.0766555310
  H         3.6973454617       12.1663824133       23.5803933847
  H         3.2728457809       12.4382755654       25.3119260554
  C         4.7201450340       13.8457243039       24.3879352624
  C         2.4935594930        9.0826812306       20.3352560484
  C        -0.2790668381       10.5254291352       27.0952990852
  H         0.2607567793        8.8773399272       25.9073613770
  C        -0.6043245504       12.2512756446       28.3833901024
  H         5.4769966229       13.4213775062       25.0170801605
  H         4.4375230153       14.7266743089       24.9630065592
  C         5.2577623819       14.2655550101       23.0305867472
  C         2.6369554822        7.6573131123       20.1014053251
  C         2.8533177946        9.9495965221       19.1530207873
  C        -0.6292606481        9.7588823842       28.3216164283
  C        -0.8205275921       11.1342835168       29.1034983929
  S        -0.7002525456       13.7697023159       29.1929964986
  H         5.8920717031       15.1297431645       23.1411371509
  H         4.5461336898       14.4953179009       22.2446676639
  C         6.2453886966       13.2708524224       22.3679200916
  N         2.3364295081        6.7055741672       21.0780252051
  C         2.9991058039        7.1267511511       18.9119363102
  C         3.0858708760        9.3817365294       17.8977578787
  H         2.8484251289       11.0219878590       19.1849691685
  C         0.6028571643        8.9306023276       29.0463038882
  C        -1.9639756989        9.0297560043       28.1764516872
  C        -1.3032120007       11.4771730188       30.3787062425
  C        -1.2982884836       12.8364368837       30.5443921314
  H         7.1912549660       13.1611554816       22.9348102345
  H         5.7636772629       12.3579692633       22.4095120091
  C         6.2811266251       13.5433331746       20.8492912071
  S         2.4616761835        5.2480018465       20.3178214406
  N         3.0882254184        5.7402339992       18.9399856154
  C         3.1659973430        7.9204170641       17.7502711659
  H         3.2255172149       10.0305141053       17.0703135191
  H         0.9133904525        8.0666979819       28.4184682399
  H         0.1517725530        8.6345146789       29.9592750106
  C         1.8502719773        9.7833183182       29.3422360724
  H        -1.6262718133        8.2787359557       27.4443656376
  H        -2.1840520316        8.5939217348       29.1878654219
  C        -3.1752127036        9.8924068469       27.8007093917
  H        -1.5087717049       10.5979683166       31.0644029521
  C        -1.5376350419       13.4905442002       31.9055076881
  H         6.0641023534       14.5529939513       20.7372217093
  H         5.5105072118       12.9692861820       20.3347610802
  C         7.6824772825       13.2281559587       20.2551903169
  C         3.2863835167        7.3008040059       16.4249398947
  H         2.1207924784       10.4016006759       28.4468078452
  H         1.6941737303       10.4779241389       30.1502286386
  C         3.0027986975        8.8628626821       29.7644864600
  H        -3.0882246202       10.4771475817       26.8937276981
  H        -3.4061851421       10.6409322241       28.5359161277
  C        -4.4077532826        9.0118705203       27.7602907948
  C        -1.4395247867       14.8802353192       32.1836385430
  C        -1.9601941200       12.6169047544       33.0175106260
  H         8.5999020352       13.7528553770       20.5220682228
  H         8.0138795657       12.1223958769       20.3687081715
  C         7.7270048915       13.5307136594       18.7577713950
  H         2.9939179835        6.2431169669       16.5413123775
  C         3.7120154955        7.6081383941       15.1664659495
  H         3.2964861646        8.1874060326       28.9558526404
  H         2.6502669913        8.3616224821       30.6927194623
  C         4.1891456487        9.7632111023       29.9415059073
  H        -4.2970839865        8.1313838397       27.1645470190
  H        -4.6555458277        8.6113636791       28.7557190595
  C        -5.7023381306        9.6802909615       27.2516868674
  N        -1.2114198201       15.9100813004       31.2624383499
  C        -1.8775972133       15.4285883523       33.3914843016
  C        -2.1613579089       13.1122092789       34.2704571186
  H        -1.9683305084       11.5457204170       32.9682984481
  H         8.1786573489       14.5559444698       18.6108047849
  H         8.2465523990       12.7367733249       18.1818610120
  H         6.7263712522       13.4838990153       18.3877347442
  S         4.0826971202        9.1216071420       14.5816506375
  C         3.7827462420        6.4613145851       14.1909844287
  H         4.1166026501       10.5147659800       29.1817321896
  H         4.1577340462       10.1538630750       30.9531628105
  C         5.3653727218        8.8330674083       29.8892402101
  H        -6.0252428560       10.5132944572       27.8877361494
  H        -6.4225155664        8.9000133978       27.4750794062
  C        -5.8982464671       10.1167526683       25.7716886529
  S        -1.4572145091       17.3395070165       32.0082312649
  N        -1.9107771721       16.8554352475       33.4315110345
  C        -2.2538237034       14.6401315757       34.4790342654
  H        -2.4603035565       12.4011809442       35.0614332545
  C         4.3174512527        8.3390204553       13.0357827360
  N         4.1262729453        6.9824885515       13.0122765411
  O         3.3607400606        5.3318361677       14.4790493738
  H         6.2960877283        9.4366319088       29.8791095387
  H         5.3780666276        8.1981155191       29.0097889976
  C         5.3931164592        7.8318345174       31.0219831086
  H        -5.2122878416       10.9689538333       25.6727538473
  H        -5.4993292502        9.4270012499       25.0765151127
  C        -7.3188698259       10.5705957487       25.4639159597
  C        -2.5596090481       15.3064198253       35.6998776271
  S         4.9377121721        9.2515716356       11.6615743461
  C         3.8992039383        6.1488470434       11.7781943035
  H         5.6872943270        8.2327910147       31.9933874105
  H         4.4596745757        7.3417158558       31.0364197062
  C         6.4183149774        6.6636987859       30.8452672893
  H        -7.2678766616       10.9900548696       24.4846965724
  H        -7.6441704549       11.3649117032       26.1385279299
  C        -8.3352154277        9.4310275732       25.5206553859
  H        -2.1987599246       16.3422997633       35.8160608273
  C        -3.1567289349       14.8459784827       36.8353909313
  H         4.6403577607        6.5354395627       11.0414962167
  H         4.2008058508        5.0941872610       11.8841030864
  C         2.4584530423        6.2348939697       11.2455217301
  H         7.3611759524        7.1636745323       30.6232999496
  H         6.2329710497        6.1835033890       29.8705976197
  C         6.3206289403        5.6845348562       31.9869854621
  H        -8.1178616750        8.6624271129       24.7684554795
  H        -8.2908390763        9.0530851160       26.5932085952
  C        -9.7382298141       10.0317145474       25.1547302356
  S        -3.9631199734       13.3688575830       37.0755935283
  C        -3.0159347631       15.7103015620       38.0073719078
  H         2.2914808555        7.3153426811       11.2144507657
  H         2.4506089428        5.7658381525       10.2420496023
  H         1.6356468859        5.8536154381       11.8099164400
  H         6.8796819394        6.1305949180       32.7980803612
  H         6.9586779571        4.8320437748       31.7883864957
  H         5.3583921143        5.2651327919       32.2602757747
  H        -9.9162918989       10.1670411084       24.0816654779
  H        -9.9536794509       10.9505512127       25.7010589649
  H       -10.4855066629        9.2721219858       25.4603301608
  C        -4.4943706591       14.0455434860       38.6110268210
  N        -3.7827894847       15.1405288154       38.9478418340
  O        -2.7351981373       16.8442102311       37.8767626708
  S        -5.3042184667       13.1717998984       39.9527108996
  C        -4.0127369339       15.8988329395       40.1689769045
  H        -4.5313405102       16.8181552028       39.8887465258
  H        -4.8669555337       15.5001336044       40.8164032028
  C        -2.7931695829       16.1610201913       40.9905849708
  H        -2.2925540408       17.0224805795       40.4484847895
  H        -3.0220935883       16.4407741132       41.9980568539
  H        -2.0496698068       15.3283536370       41.0261059457
