352
i=
  H         4.5978560182        1.8845379330       12.1627933850
  C         4.0077867755        2.7607157655       12.4077440739
  H         4.5916491559        3.6846687835       12.4605203013
  C         2.9889069812        2.9208934570       11.3571819521
  C         3.4926857033        2.5994308256       13.7778530910
  C         3.5645442821        3.0536266971        9.9465511233
  H         2.3774865623        3.7628669765       11.4784834566
  H         2.4070593220        1.9778033851       11.4573899382
  H         3.0367327913        1.6147074744       13.8888510647
  H         2.7547840249        3.3038174565       14.0420005371
  H         4.4560130306        2.6103124064       14.4406862092
  C         4.3791385143        1.8322337683        9.4048024909
  H         2.7517603123        3.3504470721        9.2748747861
  H         4.3122075735        3.8270687822        9.9729301380
  C         5.4631346699        2.0404962323        8.3627624396
  H         3.7034959467        1.0764297220        9.0251422030
  H         4.9730952884        1.2906346589       10.1670813532
  C         6.6465559128        2.8681393077        8.7745003234
  H         5.0172589302        2.4488959276        7.4794783672
  H         5.7511555258        1.0619241586        8.0275240791
  C         7.9222227337        2.0829376898        8.8391536922
  H         6.7028385600        3.6093067076        7.9798162774
  H         6.5758498917        3.3564300492        9.7647195485
  C         9.1540014370        2.9798195821        9.1475918325
  H         8.2041794543        1.5542189967        7.9647572975
  H         7.6664131651        1.3262397662        9.5803617113
  C         8.8219457058        4.2850979633        9.8430699859
  C         9.6140113321        3.7795717761        7.9598326805
  C        10.2992970914        2.1849810407        9.9408636925
  C         9.0015992570        5.4587757655        9.0754453045
  C         8.2900353173        4.6548921256       11.1133487006
  C         9.6580883945        5.1428035384        7.8951791550
  C        10.0826532544        3.1859086182        6.7850978084
  H         9.7001842571        1.8647098004       10.8046589568
  H        10.7561069141        1.3410335407        9.4274239105
  C        11.4597892145        3.0714135956       10.4710633295
  S         8.6459718856        6.9544373504        9.8739388310
  C         8.2487014552        6.0059843650       11.3181176035
  H         8.2102688655        3.8944730053       11.7893902950
  C        10.0716894619        5.8291003379        6.7752734479
  H         9.7594602833        2.1890453117        6.6478128980
  C        10.4770211999        3.8753057933        5.6223524426
  H        11.3047613282        4.0120005413       10.9569169868
  H        12.1459492079        3.1056646752        9.6403454148
  C        12.3421890656        2.3631345429       11.4504033726
  C         7.6882623532        6.5978811409       12.5424207179
  C        10.4892617702        5.2014212879        5.5655042833
  H        10.0109413145        6.8938255051        6.8162926994
  C        10.7622504279        3.4542036451        4.3125759031
  H        13.3563403779        2.8902124906       11.4340204573
  H        12.5537175004        1.3829213865       11.0363252388
  C        11.7971979149        2.3165182254       12.7816295324
  C         7.5282422642        8.0243488632       12.7642073752
  C         7.1401964560        5.7502800552       13.6348209023
  C        10.7639759560        5.8587997116        4.2390899166
  C        10.9514946866        4.5331396013        3.4852405044
  S        10.9186927811        1.9568316135        3.4952337478
  H        11.2334750672        3.1918694022       12.9008036586
  H        11.1189278759        1.4951098892       13.0048209668
  C        12.8278874259        2.2450208701       13.9673916979
  N         7.9776423844        9.0339673746       11.8713436403
  C         7.1905445772        8.4972208301       14.0226057420
  C         6.7303249352        6.2035850471       14.8533884471
  H         7.1311921557        4.7226425650       13.4110219814
  C        12.0778216350        6.7528995305        4.4427445635
  C         9.6683022199        6.7663303826        3.5727338458
  C        11.1062294499        4.1059832038        2.1273408516
  C        11.2000177289        2.7216213379        2.0409518533
  H        13.5808631548        2.9763062079       13.5426541422
  H        13.3358131791        1.2910698800       14.1374969713
  C        12.2087529634        2.7030297289       15.3035548691
  S         7.7266507556       10.4777945629       12.6377559656
  N         7.1909912136        9.8735986125       14.0524256741
  C         6.9007577446        7.7015574904       15.1687672285
  H         6.2819733987        5.5113261233       15.4911944020
  H        12.0674639200        7.5606793060        5.1735929281
  H        12.2295000095        7.2096130369        3.5240683993
  C        13.3524302704        5.9383104075        4.8056017010
  H         9.2372914450        7.3422034533        4.4195876604
  H        10.0778291082        7.4706876271        2.9420340741
  C         8.5226069790        6.0848918414        2.8301961557
  H        11.2878169994        4.7588754509        1.2914064513
  C        11.6117192662        2.0037870814        0.7407545154
  H        12.1311795423        3.8112747220       15.2476001995
  H        11.1931448788        2.2811978730       15.4186292603
  C        13.0527753838        2.2923495096       16.4658633745
  C         6.8147648675        8.4155873508       16.4262162345
  H        13.2185851880        5.4273298340        5.7257955329
  H        13.5355454219        5.1411500171        4.0593412041
  C        14.5863880200        6.8113159140        5.1950214195
  H         8.0111792461        5.2091427254        3.3685237417
  H         8.8472138870        5.6543979508        1.8656995251
  C         7.4054857764        6.9830166733        2.4277727593
  C        11.6812383299        0.5859401479        0.5818442486
  C        11.6909591563        2.7658112240       -0.5448130799
  H        14.0056868919        1.9883040615       16.0791068059
  H        12.5305099712        1.3764331714       16.7563565191
  C        13.2233694584        3.2187614838       17.6413488215
  H         7.2129949140        9.4574163241       16.3365299305
  C         6.4383879042        8.0694626927       17.6762093286
  H        14.4941602009        7.3007527873        6.1227579263
  H        14.6388724706        7.6716181082        4.5006670853
  C        15.8697029699        5.9833095704        5.2132401320
  H         7.1221890182        7.6252520389        3.2974078391
  H         7.9051508589        7.6413855851        1.6914779492
  C         6.0988075575        6.2073268069        2.1527070357
  N        11.4703534529       -0.4201320430        1.5719056546
  C        12.0239337736       -0.0286763246       -0.6208398515
  C        12.0352966475        2.1939464305       -1.7321234905
  H        11.7585739360        3.8373116875       -0.4671549948
  H        13.7859116991        4.0888998531       17.4533870513
  H        13.6866571563        2.6519272217       18.4446268355
  H        12.2322177084        3.5129450014       18.1781626476
  S         6.0964802400        6.5412266431       18.1994277743
  C         6.2952936248        9.1833970910       18.6098408862
  H        15.7123470542        5.2086879904        4.4443496658
  H        16.7570899701        6.6371673075        4.9698357308
  C        16.1223261214        5.1702006721        6.4774004000
  H         5.7004244564        5.5899456861        2.9592605315
  H         6.4616164703        5.4399590120        1.4980770060
  C         4.9711322327        7.1832093982        1.7081494756
  S        11.7271488286       -1.8629318075        0.9636158766
  N        12.0648081537       -1.4426275249       -0.5755731922
  C        12.2831323580        0.7536485830       -1.7760268244
  H        12.1013626274        2.7905512148       -2.6146318185
  C         6.1550629499        7.2472428579       19.8190192461
  N         6.1159267963        8.6106721343       19.8190217413
  O         6.5388537363       10.3660729584       18.4035816000
  H        15.6123886344        5.5069722772        7.3793137890
  H        15.8472096445        4.1750656734        6.1553561969
  C        17.5878989614        5.1759170559        6.7465063162
  H         5.2240829520        7.3711019581        0.6640877660
  H         4.0414986572        6.6316746820        1.5064392864
  C         4.6180628822        8.3669653347        2.5898256364
  C        12.6730619331        0.0169223957       -2.9947022065
  S         5.7957151061        6.3056366968       21.2892669251
  C         6.2546580128        9.4900805579       21.0125435854
  H        17.8927321053        4.3933873815        7.4516688044
  H        18.0761280275        4.7592887711        5.8434436876
  C        18.3058804817        6.4020241874        7.2732753621
  H         5.3339037212        9.1266260091        2.6075220842
  H         4.5425691603        8.0975571301        3.6967878583
  C         3.3330352687        9.0914104405        2.0941699717
  H        12.3202096619       -1.1045173034       -2.9107025791
  C        13.3298768997        0.4384958198       -4.1236188810
  H         5.3371933555        9.0893015741       21.6076654458
  H         6.0757841199       10.4972240144       20.7509513945
  C         7.5910925895        9.3566932212       21.7598970800
  H        17.7724043661        6.7491314248        8.1524524091
  H        18.2286838160        7.1672499801        6.5299567640
  C        19.7908778707        5.9655288338        7.5714736088
  H         2.5548979525        8.4495922825        2.3930757092
  H         3.1954904102       10.0495153194        2.6551862013
  C         3.2576694980        9.6375399168        0.5973859547
  S        14.0289281032        1.9661950700       -4.3899757905
  C        13.3209099454       -0.5513492988       -5.1950397539
  H         7.8386315218        8.3188671233       22.0563082961
  H         7.5986340561        9.9977141174       22.6024116282
  H         8.3697853934        9.7169753137       21.1158615917
  H        20.4286302960        6.8366846512        7.4146773544
  H        19.8027894824        5.8051141974        8.5872094003
  H        20.0024539484        5.1321339240        6.8339622337
  H         2.2640152684        9.9975480583        0.2491737828
  H         3.9725991162       10.4182277841        0.4018142129
  H         3.5224429685        8.9117509883       -0.1368091922
  C        14.3983024738        1.3138482015       -5.9920705032
  N        14.0262100060       -0.0002338090       -6.2213754799
  O        12.9176820235       -1.6647166511       -5.0632627265
  S        15.0527494090        2.2202584934       -7.4357413349
  C        14.2462658955       -0.7244319309       -7.4306727195
  H        14.6105855994       -1.7237198635       -7.1419472973
  H        15.1098934957       -0.4068689932       -8.0621149313
  C        12.8988586005       -0.8658851797       -8.2176191779
  H        12.0138646574       -0.5344799501       -7.6838466424
  H        12.7763651373       -1.8567514152       -8.5107873591
  H        12.9864742784       -0.2026507684       -9.1367962593
  H        -1.7662649803       15.9277999188       15.7548708281
  C        -2.4328202406       15.3201155658       16.3579840017
  H        -3.1834597136       16.0160566847       16.7634890793
  C        -1.6266998319       14.8139497575       17.5871712555
  C        -3.0836529192       14.1588474880       15.6071511769
  C        -2.5746354533       14.1030324641       18.5883990602
  H        -0.6502672813       14.2977711635       17.2739403740
  H        -1.2250546611       15.7219730691       18.0905761044
  H        -2.8007164744       14.4407019974       14.5666570004
  H        -2.6362077246       13.1813191426       15.8376770951
  H        -4.1524841443       14.1724519303       15.6985329570
  C        -1.7708422898       13.4557275021       19.7295509995
  H        -3.3346970365       13.3778594183       18.2369945357
  H        -3.1944507446       14.9175175521       19.0621964203
  C        -2.1634530585       13.8508879181       21.1296436674
  H        -1.9219112686       12.3452127166       19.5860911143
  H        -0.6744116539       13.7348233492       19.7369747150
  C        -1.2785702314       13.3199966090       22.2026257950
  H        -3.1237213816       13.5390445712       21.2653097849
  H        -2.0898110064       14.9738897437       21.1450549452
  C         0.0117107630       14.0354363341       22.5108424697
  H        -2.0595299167       13.2120005457       23.0060950434
  H        -1.0550852135       12.2781447963       22.0913655541
  C         1.1241151999       13.2621712678       23.2771077837
  H         0.4772630141       14.3759018148       21.5775235350
  H        -0.3173691053       14.9874968893       23.0821919946
  C         1.4858860867       11.9185050395       22.5320175393
  C         0.5795483066       12.4708244765       24.5685110293
  C         2.3186551432       14.1852340185       23.5831372218
  C         1.2542831129       10.7703218314       23.3872512577
  C         1.9923967840       11.5284756951       21.2716583826
  C         0.6655926546       11.1018393825       24.6222538374
  C         0.0035895996       13.0694723109       25.6982844099
  H         2.5326038000       15.0061674458       22.8540714074
  H         2.0399364562       14.6588370871       24.5165421867
  C         3.6649826688       13.4530858516       23.9088604949
  S         1.6737728191        9.2472736545       22.5598630612
  C         2.1577693181       10.1366201668       21.1249981863
  H         2.2328486021       12.2831907960       20.5511877483
  C         0.2285400647       10.4886117734       25.7457474648
  H         0.0885767355       14.1116866549       25.7717000629
  C        -0.3889244239       12.4464816253       26.7951865413
  H         3.8031996606       12.5846731889       23.3150719564
  H         3.4063417505       13.0259817256       24.8984058387
  C         4.8003959749       14.3801334952       24.1378968608
  C         2.4820257997        9.4198106733       19.8706686842
  C        -0.2843893641       11.1094067694       26.9021098045
  H         0.2901477237        9.4759706903       25.7076023527
  C        -0.8154774065       12.8426612691       28.0688434982
  H         5.6096603468       13.7514997877       24.5538546058
  H         4.4852387690       15.1480605714       24.7355942219
  C         5.3473245591       14.9009968750       22.8495901889
  C         2.3272489656        8.0777010929       19.5828701731
  C         2.8434240016       10.2459615178       18.6708230631
  C        -0.6516946884       10.4512118088       28.1919559112
  C        -0.8301828757       11.7485154870       28.9204902000
  S        -0.9994885947       14.2927126593       28.8606270596
  H         5.7837186279       15.7973488785       22.9871925208
  H         4.5045428780       15.0921605939       22.1904429378
  C         6.1976872987       13.8016447276       22.1034641763
  N         2.0246421042        7.1029227581       20.5513079247
  C         2.7079953695        7.4764859903       18.3388580107
  C         3.0379503605        9.6736191934       17.4350746147
  H         2.9725477435       11.2995634312       18.8319461114
  C         0.4565969326        9.6082886335       28.9387642950
  C        -2.0245170190        9.6273901002       28.0571943551
  C        -1.3293135756       12.0960252123       30.2314246353
  C        -1.4689361843       13.4576216982       30.3542387403
  H         7.2048805555       13.9902647145       22.2375475111
  H         6.0729505266       12.8540417674       22.5402084193
  C         5.9788277359       13.8070368500       20.5380358398
  S         1.8681238988        5.6260607266       19.8265799874
  N         2.4487835736        6.0417691492       18.3637485164
  C         3.1544828447        8.2258787383       17.2128961054
  H         3.2052113346       10.2498583467       16.6499429370
  H         0.8445007653        8.7771103939       28.3938029312
  H        -0.1445867998        9.0244732602       29.6899609953
  C         1.6697208293       10.3969283073       29.4324432110
  H        -1.9317982497        8.9931142805       27.2189245421
  H        -2.1019118499        9.0058550358       28.9162212966
  C        -3.2767215228       10.4720489199       27.7145421214
  H        -1.5584492312       11.2178351240       30.9064375138
  C        -1.9375974240       14.1522513151       31.6342435585
  H         5.6192009869       14.7091083521       20.0716970755
  H         5.1696888838       13.1069479793       20.2291354876
  C         7.3018845981       13.4082749522       19.8648958148
  C         3.3331034735        7.6159719451       15.9280555365
  H         2.0975587480       11.0052116608       28.6929207786
  H         1.4689495012       11.0284549532       30.2950599413
  C         2.7751378200        9.4430388739       29.7602372490
  H        -3.1034744132       11.0631018532       26.7699989579
  H        -3.4344104851       11.1753169115       28.5420558749
  C        -4.4964589241        9.5796613278       27.4772778879
  C        -2.0452255081       15.5442859390       31.7634809561
  C        -2.2600831083       13.3230001068       32.8587204175
  H         8.0646701118       13.9522544671       20.3432794482
  H         7.4015162720       12.3261989025       20.0108166186
  C         7.0739199197       13.7798074726       18.3829081356
  H         3.1753239392        6.5530423308       16.0314977946
  C         3.6798090426        8.1602599113       14.6465672246
  H         3.2828214973        8.9231488161       28.9425152368
  H         2.1673952007        8.6841191501       30.1337846390
  C         3.7590314904        9.9118067148       30.8798796387
  H        -4.3148604138        8.8456798237       26.7067552142
  H        -4.8949139136        9.1071068831       28.3535223608
  C        -5.6053577614       10.5527172349       27.0948959245
  N        -1.9823202459       16.4730053574       30.7152517535
  C        -2.3666310614       16.1796984906       32.8997746432
  C        -2.5339501311       14.0053119582       34.0483495738
  H        -2.1414824905       12.2921057545       32.8591099882
  H         7.7651555207       13.4890481290       17.6077803265
  H         6.1472206375       13.4225859235       18.0819239755
  H         7.0137598817       14.8870844077       18.2052727172
  S         4.0130230116        9.7791939068       14.2044892999
  C         3.7286137352        7.2029706715       13.5648762540
  H         4.0443157465       10.9800412124       30.6526631893
  H         3.2274003337        9.9806240519       31.8364372006
  C         5.0112905130        9.1336461555       31.1377018382
  H        -5.1751628771       11.2208116023       26.4002711084
  H        -6.1293915324       11.0843100505       27.9637738634
  C        -6.7186762696        9.7985050632       26.3824075066
  S        -2.0321057342       18.0024855676       31.3089218266
  N        -2.3378119412       17.6121932259       32.8457621002
  C        -2.6091393033       15.4728024760       34.1232106673
  H        -2.6053165074       13.3825820379       34.9800327317
  C         4.2218221278        9.1749939422       12.5800820973
  N         4.1703915806        7.7991387868       12.4283336053
  O         3.5047151895        5.9872773945       13.6754910548
  H         5.5307274677        9.7927355204       31.8810378249
  H         5.6145306293        9.1725821976       30.2250346667
  C         4.9208808892        7.6693444776       31.5971636311
  H        -6.4170806522        8.9065706844       25.8743827342
  H        -7.3492286225        9.5040136632       27.2021609464
  C        -7.5629060290       10.6586738872       25.4451734245
  C        -2.7505542059       16.2855609335       35.3036155690
  S         4.6279951585       10.0372575978       11.1443933300
  C         4.3384798417        7.1337937824       11.1928019900
  H         4.8363180313        7.7917841664       32.6464439663
  H         4.0648604507        7.2921218818       31.0979698799
  C         6.1811456007        6.7645211213       31.5156825431
  H        -7.0942623458       10.8221126060       24.5348555294
  H        -7.6820036722       11.6219538578       25.9442409561
  C        -8.9106260820       10.0443850666       25.2939699915
  H        -2.2846416037       17.2455128604       35.1864172576
  C        -3.2840816886       15.9632258662       36.4797557218
  H         5.1106326825        7.6289886286       10.5711992261
  H         4.7779016875        6.1265399233       11.4158943078
  C         2.9419612531        7.0081303907       10.6429037762
  H         6.0128405286        5.9507969486       32.2367176411
  H         7.0842996028        7.2722467153       31.8763624528
  C         6.4815718636        6.4346025773       30.0783740036
  H        -9.2217066347       10.3918404511       24.2743354485
  H        -8.7662361528        9.0178493538       25.2988378118
  C        -9.9553941686       10.5423685791       26.3176721102
  S        -3.6988180144       14.3480291284       37.1249430665
  C        -3.4299869877       17.0449156196       37.4920886080
  H         2.9172020936        5.8893139148       10.6210974581
  H         2.2095992597        7.5092881913       11.2774006953
  H         2.6472127515        7.1533810141        9.5853853992
  H         6.5329561597        5.3497585566       30.0702608281
  H         7.3656571463        6.9090217736       29.6655146485
  H         5.6246047781        6.6933429018       29.3954595812
  H        -9.6052766193       10.4528407101       27.3140070879
  H       -10.9046089734        9.9938984403       26.3039030537
  H       -10.0909647635       11.5866391544       26.1848592512
  C        -3.9339872588       15.1637255667       38.6607433836
  N        -3.7406763292       16.4912324948       38.7049502079
  O        -3.2493681928       18.1890480233       37.2590621286
  S        -4.4675198512       14.3688181177       40.1060081366
  C        -3.9374725102       17.3608456584       39.8649024183
  H        -4.2368586914       18.2225790144       39.3958946943
  H        -4.7244375681       17.0287968425       40.5609134920
  C        -2.6002271637       17.7126303743       40.6782872607
  H        -2.7390846737       18.6494536160       41.2819594578
  H        -2.4668020422       16.9342742950       41.3965646437
  H        -1.6822697538       17.7451271343       40.1631545387
