352
i=
  H         2.9036616435        1.9655507328       13.8351666692
  C         3.5689660395        1.9921128464       12.9399985344
  H         3.8781108209        0.9963651430       12.7783932051
  C         2.6858385259        2.3816709030       11.7506319751
  C         4.9820802569        2.7240512878       13.0655957244
  C         3.4724729113        2.4630103194       10.3999336866
  H         2.3151116357        3.4298200487       12.0266745549
  H         1.7721661486        1.7498779092       11.6485160244
  H         5.4329870674        2.5344078282       14.0616017654
  H         4.6893412059        3.7718396175       13.1735311657
  H         5.7655060492        2.4507563473       12.3979755703
  C         4.4090877489        1.2564978913       10.0113937415
  H         2.6893667000        2.5705293215        9.5950461737
  H         4.0641259271        3.4033685388       10.4874585692
  C         5.3450685093        1.4829825432        8.7705123958
  H         3.7984545192        0.3856307997        9.7432184357
  H         5.0303697172        0.9735150132       10.8299100793
  C         6.4755056934        2.4355307865        8.8591986134
  H         4.7629101562        1.8952166421        7.9713804590
  H         5.7293696267        0.5295907968        8.4817028111
  C         7.7163045085        1.6999051103        9.4881152203
  H         6.7089581504        2.8710881473        7.8859454412
  H         6.1650524923        3.1961578056        9.4888482703
  C         9.0144918578        2.5377531630        9.6292616239
  H         7.9011441808        0.8370649052        8.8426935910
  H         7.4419136046        1.2471080073       10.4644778905
  C         8.7472277984        3.9297278888       10.2723855172
  C         9.4048249306        3.2721267376        8.2967090433
  C        10.2521340950        1.8659061240       10.2521551114
  C         8.9893524686        5.0216218948        9.4512670567
  C         8.2868994193        4.2936878230       11.5225481546
  C         9.4139816187        4.6663360527        8.1783616788
  C         9.8255617954        2.6173875846        7.1387784627
  H         9.9141726119        1.4357918232       11.1507362369
  H        10.4993832808        1.0563759894        9.6260264695
  C        11.4748320737        2.7741840814       10.6092325407
  S         8.6130176000        6.4418803008       10.2519488085
  C         8.1317131892        5.6447454427       11.6597757279
  H         8.0427809843        3.4942288644       12.2224387345
  C         9.6920465457        5.2258646379        6.9966231000
  H         9.8375546575        1.5125513598        7.2102000779
  C        10.2690482121        3.2278276139        6.0072141624
  H        11.2156269483        3.8012713092       10.8177639030
  H        12.1158358646        2.9848700567        9.7858608910
  C        12.4605775392        2.1169926344       11.6339422885
  C         7.6976293758        6.3959707573       12.8474297252
  C        10.1553825080        4.5633846142        5.8243869411
  H         9.5255380205        6.3291566848        6.9395469261
  C        10.6431757900        2.8188196820        4.7381809102
  H        13.3773187841        2.7314640575       11.7965903112
  H        12.7916544988        1.1139381496       11.2253068137
  C        11.8731469887        2.0112517324       13.0593977818
  C         7.6334588815        7.7782584109       13.0305146827
  C         7.5436820923        5.6170773960       14.0545457176
  C        10.6152956148        5.2132665536        4.5562098869
  C        10.8148389712        3.9067760642        3.8477521732
  S        11.0012506256        1.3095139805        3.9621806072
  H        11.4708680975        3.0000228213       13.2922116857
  H        11.0555564984        1.2859322434       12.8719934439
  C        12.9085158063        1.6140762204       13.9976822986
  N         7.7285089348        8.7400534242       11.9758306684
  C         7.2929178284        8.3788433904       14.2541615138
  C         7.1614697446        6.1486979874       15.2749495688
  H         7.5557150555        4.5334679073       13.9420456569
  C        11.9233354538        6.0721953528        4.6616792133
  C         9.4628487481        6.1569118816        3.9733094025
  C        11.2289043257        3.5233268400        2.5371304339
  C        11.3758103360        2.1439490160        2.5035580486
  H        13.3691869649        2.5037162878       14.2481433534
  H        13.6671186090        1.0173434562       13.5847180796
  C        12.4808323317        0.7408644752       15.1957745048
  S         7.6355288839       10.2434111264       12.6388770549
  N         7.3130056715        9.8216895512       14.1733962505
  C         7.0404308788        7.6456987461       15.4357087792
  H         6.9878043381        5.4721390239       16.0865256096
  H        11.6687804639        7.1306069183        4.9006486737
  H        12.3724130761        6.2479161142        3.7071674013
  C        12.9050793474        5.4444388593        5.6560073644
  H         9.2071412237        6.9490336823        4.7891032106
  H         9.8885673375        6.7458665340        3.1604512304
  C         8.1776888523        5.3017621567        3.5432055357
  H        11.4626398319        4.2067114770        1.7516432498
  C        11.9307761593        1.3548084141        1.3083526202
  H        11.7314771532       -0.0164514907       14.8368091965
  H        13.4542862364        0.1503779475       15.4711020785
  C        11.8921685898        1.3535618589       16.5156228479
  C         6.7782639003        8.3478350619       16.6610802723
  H        12.3859165380        5.2744970209        6.6360111727
  H        13.0895425764        4.4355071228        5.3533834616
  C        14.0717208405        6.3781492313        5.7151831397
  H         7.8633244708        4.5543495873        4.2393656510
  H         8.4442055923        4.8681959360        2.6214237167
  C         7.0128741800        6.1926935225        3.1377499781
  C        11.9075139703       -0.0435743167        1.1258532468
  C        12.3208266601        2.1751456560        0.1406058962
  H        11.2067693755        0.7117773392       17.0130347667
  H        11.2827384490        2.2066792428       16.2312479629
  C        12.9552721219        1.9907951974       17.3834106124
  H         7.0078068707        9.3975051671       16.5506798350
  C         6.5321614059        7.9385975178       17.9301607499
  H        13.7619015332        7.2291757018        6.3468523426
  H        14.3981635181        6.7650505319        4.7741136412
  C        15.2400395629        5.7928819285        6.3815666095
  H         6.8035548253        6.9189784321        3.9911271639
  H         7.2834075948        6.8696525952        2.2957014304
  C         5.7354865574        5.3971270718        2.7922927602
  N        11.6525515636       -1.0018538725        2.0998781394
  C        12.2499650977       -0.6459465204       -0.1010058643
  C        12.6720024408        1.5474326808       -1.0860529396
  H        12.4339745234        3.2416435041        0.1465903722
  H        13.2800157904        1.2191495450       18.0761860796
  H        12.4952795655        2.8825322349       17.8801933850
  H        13.8080803593        2.4273718865       16.8674993791
  S         6.1425757209        6.3228214936       18.4009734503
  C         6.5191376016        8.9156501624       19.0485000171
  H        15.5271962455        6.4429890560        7.1314197818
  H        14.8963830249        4.9732304613        7.0221360883
  C        16.4072181206        5.3402633171        5.5088196798
  H         5.2269630626        5.1283121642        3.7095967563
  H         6.1239617421        4.4887797512        2.2973290973
  C         4.7809228372        6.1174525603        1.8760272372
  S        11.6617551166       -2.4138496076        1.3611389264
  N        11.9222376274       -1.9450205199       -0.1274794229
  C        12.7044647868        0.0987920513       -1.2446213261
  H        13.0313245467        2.1850349556       -1.8733257158
  C         6.1116030269        6.9269232700       20.0979517228
  N         6.2163179614        8.2703698123       20.2176726420
  O         6.7397813707       10.1555385035       18.9257023902
  H        15.9520375695        4.8824537126        4.6573420730
  H        16.9907338987        6.2011174075        5.1664039304
  C        17.3025730480        4.3867934603        6.3152666169
  H         5.2656013663        6.1649232330        0.8808649727
  H         3.9552021414        5.4141029037        1.7522548424
  C         4.2095082997        7.4729746579        2.4202059305
  C        12.9352599406       -0.5412007879       -2.5356615878
  S         5.9212253100        5.9314705750       21.5423825875
  C         6.2978239919        8.9106665777       21.5008276642
  H        16.7532370334        3.5707523337        6.6635517211
  H        18.1458851375        4.0229707357        5.6935569634
  C        17.9281862045        4.9723856802        7.6775203701
  H         4.6853546029        7.6932820271        3.3865182900
  H         3.1187754682        7.4162267135        2.5473037918
  C         4.5293029193        8.6329828362        1.5207694002
  H        12.8309391395       -1.6232989574       -2.4455787249
  C        13.3786590422       -0.1324016817       -3.7732820380
  H         5.4688712293        8.5960326234       22.1183042558
  H         5.9250058422        9.8978210281       21.3487544081
  C         7.7407721220        8.8770008266       22.1154843709
  H        17.8408904575        4.1847520308        8.4487058566
  H        17.4376502896        5.8824323209        8.0147626581
  C        19.4125141599        5.2939827417        7.4639806237
  H         4.9633155345        9.4115651927        2.1565848926
  H         5.3382592845        8.2275348141        0.8856187407
  C         3.3816299211        9.3368981864        0.7892741565
  S        13.7808579834        1.4463054707       -4.3152658114
  C        13.6153500004       -1.1799091169       -4.6785321259
  H         7.7576410427        8.1819959729       22.9775436575
  H         8.0509530329        9.8707767267       22.3776702068
  H         8.4733703593        8.4756501509       21.3588389457
  H        19.8843469292        4.4243163015        6.9702759844
  H        19.6173565033        6.1255440891        6.7583364719
  H        19.9510603594        5.3380487968        8.3381992571
  H         3.6915803120       10.1790517087        0.1622730858
  H         2.8296864472        8.6144717130        0.2406611976
  H         2.6153206271        9.6404154756        1.5357102833
  C        14.3096442925        0.6722453021       -5.7747948363
  N        14.2048959057       -0.7119273280       -5.7706592627
  O        13.1433501266       -2.2847642091       -4.5159376828
  S        15.0270043929        1.5275474671       -7.2786475949
  C        14.5083287725       -1.6926972349       -6.8641840947
  H        14.8664740030       -2.6722020399       -6.4289830116
  H        15.3473411738       -1.3585379708       -7.5188763250
  C        13.2738958906       -2.0009137875       -7.7309939043
  H        12.3553803323       -1.4615431842       -7.3630531599
  H        12.9139234779       -3.0173751726       -7.7937424556
  H        13.4221579205       -1.7748965523       -8.8057286707
  H        -3.7040002695       12.5915890999       16.3253214651
  C        -2.6065490599       12.6886875504       16.4437302945
  H        -2.2803753316       11.6644450678       16.6579892614
  C        -2.2622959174       13.6904269385       17.5365260184
  C        -2.2504711873       13.0473061530       15.0723546110
  C        -2.6660588278       13.2318489707       18.9661596769
  H        -1.1455540391       13.8115452691       17.5675410546
  H        -2.7316091988       14.6430012362       17.4271102071
  H        -2.3039182898       12.0962005752       14.4544350619
  H        -3.0254484890       13.7186490775       14.6839289925
  H        -1.2659141728       13.4420018397       14.8725027358
  C        -1.5298433258       13.1903451841       19.9575903155
  H        -3.2358395352       12.2666783982       18.8478885065
  H        -3.3214900202       13.9596520013       19.3900182148
  C        -2.0342421371       13.0411232668       21.4374577954
  H        -0.8232906228       12.4699256401       19.6408550310
  H        -0.9947969588       14.1783611290       19.7942594242
  C        -1.0262020541       12.3258664661       22.3349460823
  H        -3.0256107001       12.5703299931       21.5175750862
  H        -2.1127905736       14.0701894226       21.7063775893
  C         0.0011900617       13.4017568260       22.7866378568
  H        -1.5945466952       11.9071688160       23.2322920679
  H        -0.6548722653       11.4469521880       21.8855485197
  C         1.0647671500       12.7080388323       23.6302242414
  H         0.4090293452       13.8991542681       21.8856475484
  H        -0.3692468847       14.1906090324       23.4652512611
  C         1.5646448025       11.3685556849       23.0032400838
  C         0.5171392116       12.0029334714       24.8671350656
  C         2.2541498234       13.6400879573       23.9655129900
  C         1.2836766053       10.3107253041       23.8411611729
  C         2.2083943759       10.8986073391       21.7795469601
  C         0.6476573960       10.6599021772       25.0151636359
  C        -0.0960832006       12.5682378116       25.9807207815
  H         2.4796436823       13.9598293453       22.9460608467
  H         1.7145047310       14.3265682357       24.5984226028
  C         3.4928530004       12.9009516936       24.4403906807
  S         1.7354563209        8.7607214414       23.2186566168
  C         2.1854025516        9.5109742595       21.6941000583
  H         2.5244182939       11.5671196653       21.0404914132
  C         0.2786552697       10.0512710350       26.2134894611
  H        -0.1845348863       13.6215411978       25.9059668550
  C        -0.4139602628       11.9340067464       27.1601301852
  H         3.8796506189       12.1059084206       23.7626918548
  H         3.2045416525       12.3859748375       25.3957350613
  C         4.6250987827       13.7072666233       24.8108197037
  C         2.6957844827        8.8881231282       20.4864947544
  C        -0.2701484047       10.6128010885       27.3159945461
  H         0.5473235863        9.0867771202       26.3477830411
  C        -0.8666757636       12.4077387717       28.4142923820
  H         5.3216705245       13.1690094505       25.4345591377
  H         4.4008798696       14.4846969933       25.4995439900
  C         5.3442525387       14.3896154803       23.6736902197
  C         2.6274200167        7.4591987419       20.2390240271
  C         3.0819449266        9.7580131303       19.2612761409
  C        -0.7159079436        9.9401538854       28.5646204312
  C        -0.8925221355       11.4035384961       29.2624099423
  S        -1.0366988041       14.0129015102       29.1151625892
  H         6.2465035642       14.8613185850       24.0017354445
  H         4.8358475783       15.0902328586       23.0424499278
  C         5.9641641455       13.4416152864       22.6698261482
  N         2.2371146279        6.5824344925       21.1561248364
  C         2.8614150120        6.8738642600       18.9431552770
  C         3.2519477050        9.1276325746       18.0714418737
  H         3.1834243399       10.8236752860       19.3204438481
  C         0.3729398441        9.1316895768       29.1962941799
  C        -2.0220404853        9.1890545661       28.4596569898
  C        -1.1830502617       11.8649022668       30.5730290706
  C        -1.3975851092       13.2555638211       30.6479686884
  H         7.0493072073       13.5354874900       22.7098264760
  H         5.9238742059       12.4297250285       22.9385464766
  C         5.5222915198       13.9315415418       21.3082914675
  S         2.3573884622        5.0654774555       20.5132197011
  N         2.7796569481        5.4567936617       18.9600805044
  C         3.1010887420        7.6859814303       17.7752365602
  H         3.5352842914        9.7950672267       17.2950728328
  H         0.6634408081        8.3022500205       28.5897113560
  H         0.0771948694        8.5737736698       30.0793579016
  C         1.5700029290        9.9645208785       29.7194201720
  H        -1.9338849074        8.1846576126       28.0975801511
  H        -2.4041309085        8.9469454220       29.4564989519
  C        -3.0817612210        9.7776295129       27.5453594766
  H        -1.3513090584       11.1149359810       31.3711333082
  C        -1.7493469101       14.0668285742       31.8724035883
  H         5.9482529343       14.8686415243       20.9783180935
  H         4.4138468991       14.0919276465       21.2700338252
  C         5.7337444180       12.8382500815       20.3081138987
  C         3.4210381774        7.0600114790       16.5350935300
  H         2.0435953424       10.6685501021       29.0256737754
  H         1.2477104954       10.6123175193       30.5163500652
  C         2.6558647560        9.1067360683       30.2914890103
  H        -2.7671891162        9.5237483477       26.5276789286
  H        -3.0595273407       10.8865463515       27.6541026004
  C        -4.4036487196        9.0853929793       27.7828925567
  C        -1.7530055006       15.4543334722       32.0286716519
  C        -1.9968866318       13.3389393832       33.1038694346
  H         6.8584593854       12.6096485967       20.3505887879
  H         5.2312687778       11.9592882935       20.6597744980
  C         5.5370266161       13.1676974037       18.8442885299
  H         3.1216536834        6.0311914745       16.5075741090
  C         3.7654443268        7.6258999220       15.3181434404
  H         2.9299902447        8.2899689649       29.6766175944
  H         2.3174955426        8.7367533031       31.2497272288
  C         3.9290364925        9.8547467356       30.6557199135
  H        -4.4264832661        8.1322890038       27.2418155630
  H        -4.6906881678        8.6762050783       28.7996693792
  C        -5.5572124423        9.9174938445       27.1820661457
  N        -1.3603946677       16.2866363977       31.0267526675
  C        -2.0907347442       16.1943908654       33.1605589917
  C        -2.3112831565       14.0214028451       34.3026051618
  H        -2.2911620260       12.2748770004       33.0369695487
  H         6.5393986830       13.4535658336       18.5175281817
  H         5.2990889406       12.3498630266       18.1695279135
  H         4.8009645328       13.8658742275       18.7143459128
  S         4.1181951081        9.2775647269       14.9859035477
  C         3.7166707813        6.7750188947       14.1392892607
  H         3.9436629321       10.7694865537       30.0422563851
  H         3.9010861769       10.2839540519       31.6849507491
  C         5.2790495790        9.0514344551       30.3816348839
  H        -5.1406591895       10.8605523326       26.8203710784
  H        -6.4208883805       10.2210282418       27.8719206527
  C        -6.2424937127        9.1944672386       26.0615626150
  S        -1.5031349987       17.8611669000       31.4757397072
  N        -2.0036028634       17.6152504881       32.9621478093
  C        -2.3402270275       15.5175353725       34.3643067010
  H        -2.6335263499       13.4378328541       35.1695611953
  C         4.0957965603        8.7963682542       13.3132979200
  N         3.9280768248        7.4848229518       13.0527602452
  O         3.5618407378        5.5678434498       14.2288229727
  H         6.0983282754        9.5718619870       30.8482817087
  H         5.2994014677        8.9169944168       29.3334905382
  C         5.3911390717        7.7538577111       31.2291809317
  H        -5.4800572746        8.8074935925       25.3948909509
  H        -6.7836323480        8.3455977585       26.5099715420
  C        -7.0788206727       10.1596219946       25.3619631649
  C        -2.6489388551       16.3238536013       35.5036801028
  S         4.5839455765        9.9026885412       12.0149639977
  C         3.9055033482        6.9105502058       11.7039574048
  H         5.7496033078        8.1922837383       32.1452795612
  H         4.3677539741        7.3697541288       31.4897236908
  C         6.3553466402        6.6876887974       30.5618375229
  H        -6.4385422138       10.5995437034       24.6409894144
  H        -7.5598061101       10.9008301766       26.0083994564
  C        -8.2555853562        9.4074830348       24.7143267359
  H        -2.6438825521       17.3872046983       35.3120135142
  C        -3.0325612453       15.9357267006       36.7809026717
  H         4.5299922127        7.4205829939       10.9406006492
  H         4.3897208128        5.9548182966       11.7539567665
  C         2.4127621545        6.8073661956       11.1981995777
  H         7.3840691742        7.0066706196       30.4588902432
  H         5.9631254014        6.6135680079       29.5396655862
  C         6.3559955220        5.3632063232       31.2656700451
  H        -8.5408916360        9.7935714855       23.8089020785
  H        -8.0210289149        8.3334642668       24.5574064759
  C        -9.3709353030        9.4841925117       25.6857834670
  S        -3.5163758583       14.4269525689       37.3926756894
  C        -3.1786245327       17.0101047178       37.7997232319
  H         1.7685073247        6.9025342193       12.0772190520
  H         2.2351531410        7.6124401691       10.5346406136
  H         2.1319706678        5.8522613729       10.7413768603
  H         5.2996401546        5.0547891036       31.4858920742
  H         6.9506441548        5.5208050286       32.1814726087
  H         6.7957729064        4.5104980631       30.8081555615
  H        -9.7576643658       10.4481625854       25.5433052422
  H        -8.9647049725        9.5265307106       26.7042072905
  H       -10.0975818469        8.6789814429       25.4655252049
  C        -3.5292392506       15.1773018692       38.9503034503
  N        -3.4262425586       16.5043921866       38.9798282494
  O        -3.0434878413       18.2019063173       37.5913462910
  S        -3.9269715584       14.2819159078       40.3986352992
  C        -3.4452033975       17.3284821317       40.1901176763
  H        -3.9858768950       18.2143227428       39.8928558081
  H        -3.9927181679       16.9180555969       41.0021373888
  C        -2.0250591608       17.5920931954       40.5960867887
  H        -1.7397490137       16.9429871420       41.4576938050
  H        -1.2848552513       17.2438198435       39.9070577248
  H        -1.8563811343       18.6444171592       40.9326338038
