352
i=
  H         4.9277231283        1.9701574820       12.7386772514
  C         4.0344074366        2.5741159888       12.5990442563
  H         4.2726929089        3.6128232938       12.6011972971
  C         3.2044820825        2.2964287281       11.3395951905
  C         3.2167998609        2.3450090872       13.9174558779
  C         3.9816977298        2.5744314246       10.0805408908
  H         2.2789759450        2.8902875313       11.3705118921
  H         2.9404678432        1.2375067759       11.1804183179
  H         2.6010121107        1.4150410239       13.9991815976
  H         2.3919516179        3.0404562521       13.9327310118
  H         3.8063970472        2.5221276457       14.8148827069
  C         4.7868498685        1.4224585406        9.3737674448
  H         3.3361393674        2.9995866695        9.2885794089
  H         4.6946630747        3.3127488961       10.3765393341
  C         5.5683732039        1.9005730767        8.1211124374
  H         4.0923849431        0.6171662396        9.1446898062
  H         5.5202958833        0.9626865039       10.0651282057
  C         6.7237488556        2.7761590833        8.3764431199
  H         4.8140059806        2.4754717672        7.5101471670
  H         5.8923947793        1.0942408500        7.4131253368
  C         7.9104735687        1.9080721291        8.9503645502
  H         6.9689205195        3.3063700749        7.4900504162
  H         6.3920875234        3.4406860225        9.1979892253
  C         9.1925173675        2.7554090126        9.1940506537
  H         8.2453997724        1.2284578337        8.2274384202
  H         7.6106738312        1.4498138075        9.8784357424
  C         8.7899909808        4.0481326469        9.8397638402
  C         9.6578292279        3.4010239550        7.9522242454
  C        10.3206413189        2.0629958556        9.9642502435
  C         9.1089571596        5.1413491203        9.0746774782
  C         8.1896300609        4.4479547159       11.0216709165
  C         9.5966182306        4.7370243001        7.8326477964
  C        10.0526083725        2.7611169923        6.8199849982
  H         9.8666234037        1.6298272705       10.7831018876
  H        10.7795709649        1.2569889310        9.3848372681
  C        11.4789408547        3.0383535830       10.2585605756
  S         8.6671298808        6.6551621167        9.7662181422
  C         8.0445508405        5.7884890727       11.1545837436
  H         8.0245895539        3.6722326578       11.7098525587
  C        10.0152111332        5.3444606167        6.6922171880
  H        10.0195051202        1.6727426375        6.7855666372
  C        10.5396098683        3.3655234482        5.6924362179
  H        11.1418499888        3.8971173635       10.8178304690
  H        11.9632307388        3.4354949381        9.3784697682
  C        12.6392452263        2.4585742766       10.9943808777
  C         7.5298664256        6.5189865650       12.3923436360
  C        10.6143698353        4.7460107335        5.5557994688
  H         9.8998621326        6.4390445523        6.7285246714
  C        10.9749680980        2.9588581488        4.4143770378
  H        13.4670063012        3.1799706741       11.0026726933
  H        12.9557291786        1.5714057058       10.4547926266
  C        12.1475602530        1.9573717230       12.3747303682
  C         7.6320280849        7.8765153440       12.6767824875
  C         7.1840237213        5.6949493372       13.5366499894
  C        11.0277664661        5.3770872565        4.2848498985
  C        11.2815581614        3.9779421393        3.5790070763
  S        11.0837142240        1.4226262381        3.7045164423
  H        11.2615657342        2.4116676112       12.8121270990
  H        12.0557368615        0.8850273937       12.3029310056
  C        13.2661860952        2.3108003435       13.3282080060
  N         7.9792536322        8.8731172012       11.7815827735
  C         7.4025724110        8.4054102990       13.9906462857
  C         7.0956524344        6.1842954660       14.8616832363
  H         7.0235197240        4.6490004357       13.3842283668
  C        12.3058413569        6.2663938353        4.3690066910
  C         9.8659317843        6.0644432540        3.5448445115
  C        11.8435393784        3.4979507461        2.3365437926
  C        11.7518555756        2.0968167032        2.2415992546
  H        13.4654308628        3.3981249088       13.3340327807
  H        14.1750436454        1.7200908999       13.0497230786
  C        13.0752730139        1.7843955555       14.7602830296
  S         7.9907013359       10.3567512471       12.4604575639
  N         7.5303701762        9.8297476889       14.0122435354
  C         7.0283276280        7.6598451047       15.1154528632
  H         6.9132024777        5.5050875420       15.6587224785
  H        12.0074833974        6.9968971989        5.1654670798
  H        12.6053431581        6.7028870412        3.4258817235
  C        13.5529380230        5.6139451157        4.9264344732
  H         9.4652915890        6.8480426162        4.1566219091
  H        10.1599902362        6.7354580118        2.7539367756
  C         8.7406391906        5.1382342214        3.1183409125
  H        12.1265548074        4.2436151913        1.6388038171
  C        11.9953370823        1.3192836892        1.0250754238
  H        12.0334770678        1.5655778718       14.9145748888
  H        13.7847147695        0.9749223372       14.8653317406
  C        13.4538865696        2.8567216131       15.8162222202
  C         6.7792772932        8.2975935157       16.4227121164
  H        13.3288443152        5.1807642927        5.9600065604
  H        13.8921181900        4.8787775818        4.2122731651
  C        14.5487900291        6.7087159148        5.2761171585
  H         8.5254720637        4.5145226661        3.9333316748
  H         8.9502429297        4.4583844660        2.2524533862
  C         7.4769745308        5.8493937536        2.6425369236
  C        11.8887622065       -0.0803320001        0.8431999444
  C        12.1907673998        2.0427451420       -0.1954422876
  H        12.9600950749        3.8287556024       15.6932560930
  H        14.5437243582        2.9760859785       15.7568178554
  C        13.1537306701        2.4584987471       17.2821399713
  H         6.9454226616        9.3884918852       16.4459449091
  C         6.4450029508        7.7700390566       17.6482152369
  H        14.2789744236        7.2403803293        6.1327412642
  H        14.6464955970        7.3511741152        4.3361263843
  C        15.9799624581        6.2311424424        5.4969735321
  H         7.1861241161        6.4623589900        3.4734513601
  H         7.7275067871        6.5172791234        1.7762269101
  C         6.3244353558        4.8850888293        2.4437224892
  N        11.6233797147       -1.0156806038        1.8820086185
  C        12.1603438446       -0.7248498086       -0.3197886824
  C        12.3836827947        1.4301798392       -1.4170168874
  H        12.2280887785        3.1354688677       -0.2309047417
  H        12.1036074319        2.2010120597       17.3400851523
  H        13.2693783754        3.2876910079       17.9080551513
  H        13.7956239374        1.6791588535       17.6255762516
  S         6.0217393246        6.1556575261       17.9821788197
  C         6.3685544687        8.6968100564       18.7636908190
  H        16.2870314688        5.3246192460        5.0447061866
  H        16.6472543429        6.8886966822        4.9186685726
  C        16.3493434719        6.1174531753        6.9411188297
  H         6.0723508533        4.6531209099        3.4776517721
  H         6.5742058337        4.0017174870        1.8705110619
  C         5.1858858570        5.5932009603        1.6620004656
  S        11.4713290477       -2.4933927260        1.2498144978
  N        12.0433471949       -2.1146189647       -0.2351957853
  C        12.4704064797       -0.1048411359       -1.4990685891
  H        12.7006715849        2.0287672680       -2.2964731574
  C         5.8171911585        6.6932314437       19.5784347080
  N         5.9256587854        8.0448958574       19.8077827935
  O         6.5288636580        9.9532697492       18.6701325933
  H        16.2907683720        7.1035491519        7.3964557308
  H        15.5353968408        5.5543364377        7.3717921623
  C        17.6701332998        5.3095525056        7.1591409720
  H         5.6181753535        6.1817147520        0.8484377747
  H         4.4050873752        4.9407538896        1.2636368155
  C         4.4141481427        6.6308909183        2.4936076590
  C        12.7084637214       -0.8389961522       -2.6988870743
  S         5.6648506942        5.6359778625       20.9900493186
  C         5.9146946705        8.7103401235       21.1147447568
  H        17.8772429549        5.0115653878        8.1459438519
  H        17.7342314958        4.4069000241        6.5521359277
  C        18.9252852609        6.1444502160        7.0167821474
  H         5.1072935605        6.9741409480        3.3282265691
  H         3.4726289900        6.1425198895        2.9228341742
  C         4.1198037082        7.8560037182        1.4961477761
  H        12.4925372271       -1.8505984261       -2.6534691685
  C        13.1922102699       -0.4474865346       -3.8725661281
  H         5.1023092363        8.2699079911       21.6644574772
  H         5.6350956023        9.7482502672       21.2123126184
  C         7.3217773415        8.6352769169       21.7967797830
  H        19.7283700215        5.7166306125        7.6370547396
  H        18.7733044492        7.1585075510        7.4658034436
  C        19.3533482576        6.0994551257        5.6426316267
  H         4.8851314835        8.2366440225        0.8827878072
  H         3.2968551601        7.4488380625        0.9060187254
  C         3.5786796607        8.9822883860        2.4031142217
  S        13.7041477882        1.0676415750       -4.3726270133
  C        13.1027812724       -1.4837660079       -4.9848560652
  H         8.1847062889        8.4310850462       21.1235843337
  H         7.2639024841        7.8916936648       22.6135949825
  H         7.6238890138        9.5443166441       22.2695250403
  H        20.3691186084        5.8356185402        5.6840069044
  H        18.8611725102        5.3898965673        5.1046754146
  H        19.2350317097        6.9700966751        5.0021792478
  H         2.9954744994        9.8037777477        1.9189354797
  H         2.9080890547        8.4501180773        3.1412238543
  H         4.3493529791        9.4226823684        2.9699873401
  C        14.0571241826        0.2875729242       -5.9460440959
  N        13.7223769509       -1.0096168307       -6.0590906913
  O        12.8575364477       -2.6955704932       -4.8259788634
  S        14.5699622308        1.1668413048       -7.3970751253
  C        13.9351094327       -1.7647810692       -7.2710379705
  H        14.2532390395       -2.7852610403       -6.9514460321
  H        14.7129301343       -1.4054688103       -7.8329295511
  C        12.6672978070       -1.8580344929       -8.1087762197
  H        12.4514422180       -0.9658315010       -8.7405791077
  H        11.8095781539       -1.9875855655       -7.4307740875
  H        12.7234975782       -2.6429031730       -8.7986341066
  H        -3.4409719584       14.6926955719       16.3164320807
  C        -3.0484155985       13.6718924029       16.4368793495
  H        -3.8588313801       13.0000565473       16.7869323847
  C        -1.9004310624       13.6705112699       17.4214595846
  C        -2.7853477546       13.2945722525       14.9727911245
  C        -2.4089705787       13.9258742869       18.8321812015
  H        -1.4000224613       12.7166198737       17.4082686064
  H        -1.2273229728       14.5028830039       17.1263357587
  H        -3.1160951991       12.2088792843       14.7914118713
  H        -3.2064154854       13.9901788188       14.2237576036
  H        -1.7282673763       13.3073920455       14.7129839048
  C        -1.4102537349       13.9378979662       19.9322125356
  H        -3.1602707809       13.1777757739       18.9116551578
  H        -3.0007965090       14.8838551063       18.9463079318
  C        -1.9955794454       13.8009998834       21.3575649629
  H        -0.6734704919       13.1630631535       19.7512721714
  H        -0.8159012004       14.8450868917       19.9292712195
  C        -1.0392865824       13.0177316124       22.3824951150
  H        -3.0285291643       13.4563711953       21.2180994297
  H        -2.1567062234       14.8301237657       21.7512803048
  C         0.1209529978       13.8991278375       22.7654971255
  H        -1.6632286517       12.8858471979       23.3110307548
  H        -0.7175954741       12.0827245204       21.9271138159
  C         1.3887436869       13.0493139037       23.3389407260
  H         0.3779301292       14.5476711435       21.9969645782
  H        -0.2131889126       14.5958880479       23.5969882439
  C         1.7037936502       11.6884195098       22.6192232480
  C         0.9074172715       12.3841415972       24.6592049296
  C         2.6845367358       13.8923836572       23.3332821518
  C         1.3788987606       10.6250900986       23.4775301220
  C         2.2074689236       11.3045321792       21.4102770171
  C         0.8649324638       11.0561075760       24.6861081493
  C         0.3786469403       12.9880546511       25.8300513743
  H         2.8307910408       14.2110752964       22.3221042058
  H         2.4985587407       14.6895996795       24.0109830715
  C         3.8988014487       13.1328338374       23.9904329946
  S         1.5616830136        9.0950446737       22.7529577096
  C         2.2312228254        9.9278975280       21.3523123814
  H         2.4844038266       12.0042626654       20.7000381896
  C         0.3474001242       10.4093380122       25.7686801395
  H         0.3910055740       14.0783274226       25.8956262761
  C        -0.1190151600       12.3703376316       26.9593691062
  H         4.0357410059       12.2266372020       23.4747848532
  H         3.6078412472       12.8967971559       24.9884517028
  C         5.1477415593       13.9018704000       24.2593050728
  C         2.5619337310        9.2026794411       20.0590042658
  C        -0.1033329572       11.0247344545       26.9912486447
  H         0.3022645121        9.3450031670       25.7783023111
  C        -0.6927716324       12.7395767004       28.1217157405
  H         5.8304818160       13.1703271937       24.7318140032
  H         4.9834459827       14.6756390229       25.0979838524
  C         5.6601935111       14.4857322370       22.9295339957
  C         2.5010901936        7.8230141482       19.8615392166
  C         3.0590225947        9.9981415231       18.9615399990
  C        -0.5896896964       10.3199469741       28.2177829444
  C        -0.9070601098       11.6585567591       29.0152905259
  S        -0.9011012938       14.2917204921       28.8554229010
  H         6.3496273964       15.2195504588       23.1718090796
  H         4.7897338650       14.9615209708       22.5600709483
  C         6.4425686885       13.4876681385       22.0123140524
  N         2.1692395291        6.9393554432       20.8440054085
  C         2.7544618035        7.2353228934       18.6530533352
  C         3.3246171823        9.4538312967       17.7025319867
  H         3.3941435416       11.0622921591       19.1090826461
  C         0.4607591579        9.4085547656       28.8704059852
  C        -1.8976322120        9.4809864414       28.0252834273
  C        -1.3541464303       12.1496597481       30.2368285661
  C        -1.3753976118       13.5289262644       30.3307263584
  H         7.3173566891       14.0618482741       21.6727971709
  H         6.8944237526       12.6205673596       22.5711579812
  C         5.5878572135       12.9962278846       20.8294044141
  S         2.1804532620        5.4470514122       20.1811127433
  N         2.5542136152        5.8864657111       18.6903771889
  C         3.1555973506        7.9636746939       17.5026745227
  H         3.7256065653       10.0328185667       16.9391390360
  H         0.8266345847        8.8285475718       28.0581057378
  H        -0.0442690098        8.6759618145       29.4588314531
  C         1.5913282940       10.2032326383       29.6348767464
  H        -1.6413605313        8.6829905967       27.3800232810
  H        -2.2367798521        9.0411775492       28.9496356160
  C        -2.9352666801       10.4124612089       27.4177885600
  H        -1.6147264439       11.3933213099       30.9473806309
  C        -1.6009469653       14.2421274621       31.6783699842
  H         4.5097294033       13.1858734994       20.9708877846
  H         5.7138041666       11.9439181931       20.7763517452
  C         6.0833548952       13.6028700989       19.4528312367
  C         3.2392579294        7.3591177337       16.2025229119
  H         1.8940428898       11.0896905126       28.9638414939
  H         1.1783177143       10.7354511436       30.5312449696
  C         2.6912562827        9.2823473689       30.2068952059
  H        -2.5809710368       10.8840358618       26.4625112412
  H        -3.2284116407       11.2447024184       28.0227629456
  C        -4.2259030196        9.6669876298       27.0672171181
  C        -1.7052664322       15.6357437340       31.7787800209
  C        -1.7855494957       13.4748700142       32.9358210740
  H         5.4254668785       13.1666176449       18.6683318973
  H         6.1308373090       14.7111771142       19.5330274294
  C         7.4720864415       13.1841218062       19.0941634793
  H         3.1802814462        6.2718624813       16.2878474195
  C         3.5400172358        7.7929017885       14.9295645087
  H         3.4767539895        9.0473952150       29.4604549238
  H         2.2658317422        8.3429472926       30.4166698490
  C         3.4391039839        9.9901462885       31.3286728595
  H        -3.9744649931        8.8567759073       26.3508361172
  H        -4.7083158342        9.1772598195       27.9581861739
  C        -5.2560855917       10.6240899784       26.3126778109
  N        -1.5498155383       16.5024986016       30.6897768238
  C        -1.8990338242       16.2820647885       32.9856973693
  C        -2.1526309788       14.1624651441       34.1197589513
  H        -1.5202660860       12.4609989832       33.0175068924
  H         7.7730253878       13.4949128862       18.1030478731
  H         8.2577592044       13.4744587149       19.7728852614
  H         7.4787308676       12.1441238184       18.9405343481
  S         3.8617849191        9.4176747260       14.4916822606
  C         3.5417610652        6.8774992070       13.7868340383
  H         3.3476230544       11.0533511225       31.3092998821
  H         3.0619229096        9.7504467953       32.3249944928
  C         4.9912968274        9.6951066602       31.2539057013
  H        -4.8143082469       10.9983776248       25.3809945700
  H        -5.6935860969       11.5811404001       26.7419761677
  C        -6.5520387548        9.8006423994       25.9741262678
  S        -1.5852366807       18.0725265055       31.2992164946
  N        -1.9147492654       17.6480893015       32.8080341945
  C        -2.1620520942       15.6213084616       34.2020095396
  H        -2.4062421093       13.5665622821       34.9748208358
  C         4.2261417354        8.7739475998       12.8553740195
  N         4.0124939794        7.4231893891       12.6676280286
  O         3.1696726518        5.7043889596       13.8899305098
  H         5.4258794615       10.4411664180       31.8443082575
  H         5.4312131516        9.7693736452       30.2014242429
  C         5.3514150853        8.3147556333       31.8411930931
  H        -6.3055327010        8.9944823332       25.1993961036
  H        -6.9529116964        9.3066451323       26.8160419954
  C        -7.5424499553       10.7071289102       25.2437270734
  C        -2.4486711124       16.4493609071       35.3284905763
  S         4.6810045255        9.7365279931       11.4125845755
  C         4.1102265891        6.6330248611       11.3667009750
  H         6.1047651164        8.5502283762       32.6133043793
  H         4.5025252415        7.9289503351       32.3569901390
  C         5.5377979288        7.1413733214       30.8172200992
  H        -7.0486715889       11.2852654964       24.4145965357
  H        -7.7417528612       11.5659445717       25.8788699201
  C        -8.8124164084        9.9892654017       24.8870344585
  H        -2.1352527319       17.4504607467       35.2156041886
  C        -3.0166747301       16.2088060437       36.5471245684
  H         4.8218549597        7.1384367937       10.7050017437
  H         4.3933255995        5.5641756915       11.4982507332
  C         2.8322080981        6.8911794412       10.6001390959
  H         5.2629541420        7.6126113861       29.8218896209
  H         4.8188411539        6.3412806713       30.9884802130
  C         6.9351042755        6.5749363475       30.9662910693
  H        -9.2876556021       10.2875111403       23.9165711635
  H        -8.4680860201        8.9962398344       24.6791774987
  C        -9.8462877850        9.8868473995       25.9903053144
  S        -3.4980604925       14.7081668753       37.1584194563
  C        -3.0033731733       17.2923082421       37.5558411077
  H         2.6040790676        6.0952923983        9.9536294217
  H         2.0295903296        7.0617411653       11.2917477338
  H         2.9436877162        7.7326842825        9.8780400605
  H         7.0525754117        5.7643616969       30.1936960945
  H         7.1161989346        6.3142199625       31.9795875205
  H         7.7131139651        7.2806158376       30.7144465036
  H        -9.4901066288        9.1773420542       26.7492061522
  H       -10.7952036544        9.4939937995       25.5440234871
  H       -10.1107891649       10.8523659832       26.4200076531
  C        -3.7421718575       15.5353801420       38.6752692152
  N        -3.4711512056       16.8731260339       38.7251881049
  O        -2.7025516493       18.4684118373       37.1744094643
  S        -4.1555503567       14.7780318430       40.2116643720
  C        -3.4397886677       17.6925648131       39.9082296807
  H        -3.5320074822       18.6957140653       39.5263512392
  H        -4.2655490471       17.4697241581       40.5632547655
  C        -2.0526039722       17.6263571869       40.6911836185
  H        -1.7900251933       16.5856818620       40.8934868993
  H        -1.3426626308       18.2006664315       40.0388088840
  H        -2.1983377683       18.1764865507       41.6309209725
