352
i=
  H         4.1982579529        0.8313265060       12.1404676321
  C         3.8331216087        1.8516598002       12.2892009243
  H         4.4439591872        2.6621252201       12.3296418159
  C         2.8910517010        2.1960232248       11.1331022390
  C         3.0155154436        1.9593894506       13.5670803750
  C         3.7105319152        2.4827663648        9.8295231505
  H         2.4610585327        3.1363152214       11.3715583012
  H         2.0653998396        1.4452636502       11.0481851845
  H         2.1106386184        1.3149225997       13.3787717678
  H         2.6708618722        3.0205137627       13.5867162804
  H         3.6891914771        1.7938113446       14.3302258713
  C         4.5190303697        1.2873748262        9.2779662187
  H         3.0910362297        2.9664154660        9.0753542348
  H         4.2679013869        3.3664985013       10.2656747777
  C         5.3069486613        1.5184790946        8.0213766194
  H         3.7814123432        0.5737480042        9.0203130701
  H         5.1610763515        0.7518544676        9.8926305827
  C         6.6252088284        2.3965338599        8.0528902163
  H         4.7210877793        2.2210731700        7.4266060689
  H         5.5094342945        0.5811396596        7.4513897129
  C         7.7555731040        1.7810694016        8.8098624525
  H         6.8917518625        2.7101215911        7.1801301169
  H         6.3896734907        3.1594733111        8.7796049087
  C         9.0163277648        2.7044798483        9.1668504111
  H         8.0948961810        0.8354278940        8.3664366300
  H         7.3870891499        1.4718102250        9.7149623446
  C         8.5848521280        3.9809350447        9.8602643567
  C         9.4531531878        3.4359121836        7.9535693564
  C        10.1904984073        2.1306190579        9.9558382534
  C         8.8913698739        5.1310289849        9.0828897332
  C         8.0330353349        4.3774110536       11.0974398466
  C         9.3678023101        4.7316559384        7.8334372934
  C         9.8322730060        2.8238615438        6.8210251057
  H         9.8250526091        1.5589577922       10.9051480602
  H        10.7485226091        1.4146264208        9.4894029156
  C        11.2092982051        3.1279243954       10.5071996800
  S         8.5772573206        6.5723922418        9.8414376775
  C         7.9247248086        5.7253589539       11.1812266731
  H         7.6915405656        3.6903099784       11.8016858635
  C         9.8621941281        5.3529171363        6.7285474240
  H         9.9837012881        1.7994096979        6.7254701404
  C        10.2633851478        3.3719521069        5.5958393398
  H        10.7328633398        3.9794130333       10.8894257607
  H        11.8155854331        3.4216325348        9.6291271751
  C        12.2204485374        2.6009537017       11.5191000870
  C         7.5365281459        6.5264622498       12.4385780321
  C        10.3374603496        4.6628946070        5.5909066043
  H         9.9825149857        6.3495616769        6.7617399028
  C        10.7497763703        2.9489884585        4.3682450231
  H        13.3182102627        2.9157073238       11.1635273951
  H        12.5269526584        1.5904816557       11.3802712061
  C        11.8381383619        2.7407218579       12.9994830955
  C         7.5355063276        7.9385683089       12.5675020586
  C         7.0833795160        5.7980125253       13.5935820972
  C        10.7995074997        5.3150771462        4.3492024471
  C        11.0617720520        4.0452984944        3.5893581763
  S        10.9022874140        1.4267537507        3.6486117172
  H        11.5912091283        3.6736327991       13.2682569300
  H        10.9107265429        2.1922191430       13.1619079129
  C        12.7931330979        2.1278306325       13.9744214428
  N         7.8974980606        8.8331258770       11.5737188375
  C         7.3653720588        8.5480272747       13.7789825581
  C         6.7135969950        6.4545932534       14.7100961454
  H         6.8790994810        4.8103515888       13.4380010195
  C        12.0876913736        6.0873696259        4.6024429608
  C         9.7737694851        6.1121702769        3.5611467640
  C        11.5443360665        3.5629534763        2.3769743085
  C        11.4117520937        2.2468062874        2.1833202338
  H        13.7635230421        2.5658157933       13.8012526746
  H        12.8362114804        1.1339299444       13.6907388572
  C        12.2864321545        2.4153465438       15.4149692185
  S         8.1107474779       10.2742185669       12.1741989359
  N         7.7620147904        9.8580085400       13.7765975329
  C         7.0446713043        7.8169005526       14.9357331700
  H         6.2843223888        5.7184334620       15.5565303231
  H        11.8674131338        6.8824281218        5.3331393692
  H        12.3592196313        6.4232188337        3.4891098337
  C        13.2551188197        5.2265749644        5.1329850636
  H         9.1985319651        6.8361773545        4.1087617594
  H        10.1698028841        6.5443703043        2.7051727960
  C         8.6756061341        5.1825967741        3.0475971750
  H        11.9053810472        4.2328061373        1.6357685391
  C        11.6631286531        1.5297501153        0.9041551919
  H        12.3986464889        3.5369682754       15.6198302705
  H        11.2813805985        1.9296263232       15.4930572810
  C        13.2462554689        1.6122541513       16.3221044159
  C         6.9296219403        8.6352594694       16.1826100273
  H        12.9599227928        4.7416311315        6.0110472353
  H        13.3579243147        4.3860861090        4.4746400549
  C        14.5400137963        5.9781158516        5.2854337787
  H         8.4054087391        4.3922990512        3.7275728641
  H         8.9490125694        4.5473794152        2.2409138977
  C         7.3216697477        5.9153303270        2.7672326128
  C        11.7648075834        0.0897551232        0.7009126241
  C        11.9611350745        2.2724784726       -0.2812562375
  H        14.1862262956        1.8020924649       16.0293264091
  H        13.0649373193        0.6144747634       16.1653992318
  C        13.0560733030        2.0548248379       17.7571785161
  H         6.8930463317        9.8050293291       16.1056644504
  C         6.5751240841        8.3384722677       17.4726066746
  H        14.3111098978        6.9601407706        5.7378026372
  H        14.7450937696        6.0973923821        4.1638207705
  C        15.7315989362        5.2183151213        5.8598735576
  H         6.8931780425        6.2607997706        3.6220286941
  H         7.5796653594        6.8755308707        2.3214673812
  C         6.3897373557        5.0942334000        1.9553631881
  N        11.5076559778       -0.8136996778        1.7020766667
  C        12.0941948076       -0.4969699362       -0.4873935050
  C        12.1472829335        1.6735572350       -1.5568304143
  H        11.6040370654        3.2999506195       -0.3521127954
  H        13.6212741219        1.3631028121       18.4146668351
  H        12.0880804038        1.9307928371       18.1665535619
  H        13.2915330817        3.1488330880       17.9504221108
  S         6.1690349010        6.7142684162       18.0576183385
  C         6.3845432506        9.4146252223       18.3902052976
  H        15.5464159457        4.6903165551        6.8285852085
  H        16.1823907854        4.5973591797        5.0900295092
  C        16.9159206347        6.0771611363        6.2913347670
  H         6.2131547932        3.9349972371        2.3514746488
  H         6.8294811227        4.7316950761        0.9411471624
  C         4.9613511180        5.6681488780        1.6437488777
  S        11.8081951032       -2.2685128016        1.0901713069
  N        12.0833707862       -1.8515812521       -0.4134874080
  C        12.4487818689        0.2213120000       -1.6194972016
  H        12.3282632474        2.2808155809       -2.4646832565
  C         6.0106226970        7.4479750884       19.6497318283
  N         5.9936373871        8.8172353215       19.6167452389
  O         6.7025325339       10.6016099779       18.2245465921
  H        17.4542516980        6.4186819624        5.4146359307
  H        16.5025474312        7.0551245945        6.6543109232
  C        17.8320278379        5.4929282452        7.2719785126
  H         4.4821383055        4.9383616675        0.9630515681
  H         4.6304939959        5.6230127407        2.7026838335
  C         4.9796298852        7.1299146769        1.0065847169
  C        12.8145610609       -0.5153262836       -2.7717408628
  S         5.5825978485        6.5600016779       21.1148820753
  C         5.9218002993        9.6046885717       20.7766447713
  H        17.4675041369        5.4509540518        8.2911568777
  H        17.8826017347        4.3313772222        6.8692132100
  C        19.2501230799        6.1178139787        7.2812648542
  H         4.4581845263        7.1029200690        0.0930355439
  H         5.9599615189        7.4392311361        0.7464288664
  C         4.2637643450        7.9428914840        2.0818644895
  H        12.5531801637       -1.5545451894       -2.8146971252
  C        13.3260527267       -0.1450961221       -3.9958906559
  H         5.2002187972        9.0601720749       21.4029211042
  H         5.4813249058       10.5924073367       20.5396533922
  C         7.3003825280        9.7940858851       21.3719411623
  H        19.8129977704        5.9355332927        8.1048907739
  H        19.1363429226        7.1716885400        7.1641297719
  C        20.0368642676        5.6831973576        5.9536647983
  H         3.3484422601        7.4905819316        2.1729890308
  H         4.6094806600        7.8923987657        3.0273601737
  C         3.9775589235        9.3983908247        1.7514081163
  S        13.5797776508        1.5208697663       -4.4452278075
  C        13.4724120984       -1.1041826371       -5.0623583578
  H         7.1716728208       10.3384975654       22.3532936353
  H         7.8965069637       10.5528269369       20.7931803372
  H         7.7534098923        8.8872668123       21.7858089268
  H        20.6471609494        6.5892652017        5.6419599200
  H        20.6493813370        4.7727801718        6.1161563375
  H        19.3332549623        5.3713413555        5.1857171185
  H         3.5506888466       10.0296310905        2.5028867042
  H         4.8554525009        9.9447527591        1.4209069631
  H         3.3275599965        9.4402617371        0.8890962372
  C        13.9280352059        0.8366403180       -6.0191610492
  N        13.9801018948       -0.4505435947       -6.1430015171
  O        13.1483376901       -2.2652929907       -4.9477900134
  S        14.5605326763        1.7471677968       -7.3557750435
  C        14.2311727659       -1.2067559201       -7.3563746965
  H        14.6191886883       -2.2302307958       -7.2421871291
  H        15.1280483772       -0.9907441135       -7.9321080334
  C        12.8521292560       -1.3571662096       -8.1209701036
  H        12.0812023861       -1.0745636385       -7.3584484831
  H        12.8758584605       -2.3876149041       -8.4787732623
  H        12.9679821255       -0.8080006824       -9.1027932473
  H        -3.2690247722       15.2624017203       16.2276914442
  C        -3.2693242530       14.1846484754       16.2034205759
  H        -4.2765962838       13.9262548197       16.5513411098
  C        -2.1828585113       13.7938089161       17.2636211942
  C        -2.9632849964       13.6223312998       14.7770313495
  C        -2.7028510963       14.1529525100       18.6448006140
  H        -1.9081343296       12.8016439511       17.1526933820
  H        -1.2472079374       14.3238715267       16.8539168615
  H        -3.4633041449       14.1600995998       14.0706026011
  H        -1.9485006644       13.3750428425       14.6064366135
  H        -3.3519830663       12.6872422620       14.4771072127
  C        -1.5802023806       13.6961820165       19.7110121122
  H        -3.5978388671       13.5691953831       18.9377864862
  H        -2.8725210046       15.2269643789       18.9215274704
  C        -2.1168365947       13.3926062034       21.0850016337
  H        -1.0922659782       12.8788430037       19.2077730526
  H        -0.8717750807       14.5329746470       19.6865367889
  C        -1.0683951920       12.8602025743       22.1226637309
  H        -2.9340477542       12.6585575725       21.0821602573
  H        -2.6751729166       14.1607758844       21.6529054033
  C         0.0346190601       13.8324224751       22.6748587320
  H        -1.4830116816       12.3742796352       22.9690701220
  H        -0.4935608182       12.1636357808       21.5188009674
  C         1.2655448798       13.0622686988       23.2661771331
  H         0.4306766934       14.3934168551       21.8322696904
  H        -0.4460477118       14.7453354851       23.2491520484
  C         1.6143268966       11.7936086417       22.6479651295
  C         0.8358965885       12.3718553358       24.4776441763
  C         2.5242854581       13.9598609627       23.4433838532
  C         1.3095405569       10.6737748633       23.4034282451
  C         2.0993401653       11.2951372332       21.4059906968
  C         0.8583692695       11.0694221574       24.6379780921
  C         0.4221551484       13.0243224638       25.6300844395
  H         2.6979298159       14.4342909693       22.5180261286
  H         2.2382012173       14.7617027307       24.1269859884
  C         3.7223034010       13.1838913886       23.9339364850
  S         1.5144536729        9.1787509412       22.6245856905
  C         2.1364568872        9.9619075517       21.2341687527
  H         2.3247389996       11.9471303171       20.6984095246
  C         0.4431177551       10.5431374029       25.8581973419
  H         0.3958360203       14.1141360277       25.5970784500
  C        -0.0415348773       12.5263900562       26.7920346512
  H         4.0063639521       12.4368342895       23.2153778532
  H         3.4106692638       12.5305341704       24.6880819862
  C         4.9132672796       14.0516344401       24.3044794432
  C         2.4709036044        9.1921686266       19.9872227189
  C        -0.0889511368       11.1883425076       26.9030671803
  H         0.6096699871        9.5312626045       25.8885792297
  C        -0.5246767281       12.8594544121       28.0062075852
  H         5.5365278509       13.4207786326       24.9584713322
  H         4.5164170391       14.9744819379       24.8033292824
  C         5.8190620397       14.4866342854       23.1449156980
  C         2.3983577294        7.8288908450       19.7834602039
  C         2.6989311025       10.0037663519       18.6956380186
  C        -0.4938617954       10.4341694725       28.0974931406
  C        -0.7936977015       11.7398727719       28.7242952097
  S        -0.9551656831       14.2117235113       28.8165747629
  H         6.5575744205       15.2839957113       23.3949914329
  H         5.2487151722       14.9067654829       22.2669213033
  C         6.6567978343       13.3488757488       22.5016101952
  N         2.0509797556        6.8890921087       20.7439316698
  C         2.5507048975        7.2609076538       18.4286952979
  C         3.1162308684        9.4282447074       17.5577463878
  H         2.7926695197       11.0616886315       18.9108995884
  C         0.6735257474        9.7245413489       28.8511461308
  C        -1.7189598871        9.4441324304       27.7896508503
  C        -1.1967346363       12.0158140203       30.0171733509
  C        -1.4437526723       13.2819733694       30.2364315686
  H         7.1797446584       12.7356791230       23.1788343342
  H         5.9050870511       12.6727071517       22.1502665091
  C         7.5660347555       13.8553155425       21.3006093290
  S         2.0347436285        5.4408164302       19.9531822688
  N         2.1908161138        5.9150148488       18.4150411619
  C         2.9566024270        7.9628490774       17.2837696592
  H         3.5004868835       10.0951222468       16.6150425635
  H         1.1698430620        9.0028224723       28.1413816201
  H         0.2115706622        9.1344511662       29.6845922372
  C         1.8218602130       10.5777974197       29.4689710236
  H        -1.3357340790        8.7881751764       27.0297009695
  H        -1.9064755190        8.8661718622       28.6512969177
  C        -2.8674960123       10.2443057431       27.4383593939
  H        -1.3382084129       11.1229923128       30.6906049788
  C        -1.7792210239       13.9817009559       31.4643390070
  H         8.3852674778       13.2574502163       21.2572316670
  H         7.8651739293       14.8726793774       21.5349770609
  C         6.7916925884       13.7864918802       19.9776066174
  C         3.1701756805        7.3131004818       16.0441118270
  H         2.1825716918       11.2354107520       28.7484654999
  H         1.5997283366       11.2723338929       30.2235351525
  C         2.9626984592        9.6565879781       29.9380266512
  H        -2.6491470180       10.8878437547       26.5050139686
  H        -3.1587799349       10.9724685956       28.2024048230
  C        -4.0400569541        9.3619224276       27.1309877945
  C        -1.9031408417       15.3651209765       31.7222730047
  C        -2.0378114597       13.1834875774       32.6518513236
  H         6.2969306596       12.8670415748       19.9237822451
  H         6.0627717018       14.5520039934       20.0281344875
  C         7.6952858758       13.8688642979       18.8064631598
  H         3.0817313581        6.2689727961       16.0754910714
  C         3.6193411230        7.6482685052       14.8758181079
  H         3.1617104832        8.9258070218       29.1483680873
  H         2.4647035663        9.2843993885       30.8117328765
  C         4.2737949655       10.2155358419       30.4333080919
  H        -3.8971213559        8.8244400583       26.2619120604
  H        -4.2598889542        8.8413895442       27.9768760615
  C        -5.2871574300       10.1738585213       26.9237100046
  N        -1.4951940654       16.3279858866       30.7955062090
  C        -2.2870096441       15.9441344323       32.9352509140
  C        -2.3613182094       13.7504958638       33.8362058997
  H        -1.9906583533       12.0384469507       32.7259291627
  H         7.2344744352       13.7448194841       17.8870314737
  H         8.2249753481       14.8282357957       18.7163420968
  H         8.5256392445       13.1102613676       18.7176379227
  S         3.8898040754        9.2368467371       14.3351904062
  C         3.5107351777        6.6430204190       13.7797499585
  H         4.5093410666       11.0360591190       29.7337220359
  H         4.0550331420       10.5853674877       31.4150350289
  C         5.4598031946        9.1994162350       30.2273476469
  H        -5.1950604483       11.1332014156       26.2898109150
  H        -5.9678438136       10.4271496197       27.8016257260
  C        -6.2185400078        9.5046624316       25.9695183445
  S        -1.6990687182       17.7872218798       31.4578725861
  N        -2.2434658014       17.3135883804       32.9360612737
  C        -2.5520102543       15.1719483043       34.0817857916
  H        -2.6713824767       13.0260209025       34.7818050385
  C         4.0742978506        8.5411179303       12.7644549527
  N         3.9261825790        7.1576663353       12.6332396489
  O         3.2227838492        5.4756174295       13.8799362254
  H         6.4085176059        9.7548415679       30.5506258787
  H         5.3073523047        8.9433152806       29.0923217559
  C         5.2520536086        7.9248235656       31.1144176991
  H        -5.7078634876        8.9935393893       25.1180604175
  H        -6.7603682907        8.6921949032       26.4245597134
  C        -7.1592088960       10.5027294749       25.4004866585
  C        -2.9614495202       15.8067453729       35.2893111990
  S         4.5801253340        9.3726500974       11.3454309815
  C         3.8445892434        6.4765457757       11.3484598098
  H         5.6786904738        8.2982435987       32.1086716892
  H         4.2957381412        7.6580215062       31.1587937325
  C         6.1116602621        6.7633840874       30.6799861276
  H        -6.7489254752       10.9971963190       24.5651462082
  H        -7.2300390033       11.4207565580       26.1152294323
  C        -8.4969329592       10.0029797137       24.8544716590
  H        -2.8937659107       16.8283403476       35.4012176486
  C        -3.4846457029       15.3882850662       36.4438801189
  H         4.5947522040        6.6061924786       10.5583425489
  H         4.2924014373        5.4358471767       11.3749934708
  C         2.4442013015        6.3886079734       10.6954081640
  H         7.1426506100        7.0397819752       30.4826403025
  H         5.7290485800        6.3822719497       29.7321665270
  C         5.9880914475        5.5675060499       31.6890596796
  H        -8.7858162681       10.5841656347       24.0660467806
  H        -8.4424681508        9.0976510694       24.4430771108
  C        -9.7303898094       10.1363371074       25.8206047500
  S        -4.0170739735       13.9002720789       36.8943078334
  C        -3.5632440558       16.4228553895       37.5651604321
  H         2.2510300367        7.3381152353       10.1667332391
  H         2.4273186661        5.4991283224       10.0212827512
  H         1.6154186800        6.0232342796       11.4488420776
  H         5.1340335983        4.9591445363       31.6117200670
  H         6.0578202096        5.8672711919       32.6972996589
  H         6.6922103178        4.8042401431       31.3470394149
  H        -9.6503771891        9.6981064546       26.8340075909
  H       -10.6909465359        9.8725627618       25.3277597921
  H        -9.9062851143       11.2275178777       26.0211163364
  C        -4.3985742348       14.5603285762       38.4858525913
  N        -4.0972066880       15.8398448067       38.5696675382
  O        -3.0757959822       17.5684820418       37.5106116841
  S        -5.2229046103       13.7426110412       39.8536564966
  C        -4.3504364226       16.6269442482       39.8478836762
  H        -4.4142854651       17.6924092657       39.6356292811
  H        -5.2297244451       16.4162193162       40.4629741443
  C        -3.0948939338       16.5043500272       40.7463848816
  H        -2.6881411148       15.4677297879       40.6215583515
  H        -2.3820975469       17.2060031876       40.2935301913
  H        -3.5523450187       16.7592636012       41.6768268692
