352
i=
  H         2.4491253812        3.3922028983       12.5647080787
  C         2.8183642600        2.3844136109       12.5194654656
  H         2.1433948951        1.9285551976       13.3103800848
  C         2.7107065764        1.8151420287       11.0992152660
  C         4.2412503323        2.0718138906       12.9885741826
  C         3.6674637934        2.4491426509       10.0029679618
  H         1.7222852130        2.0648620895       10.6553155892
  H         2.7545588334        0.7255174018       11.0509705207
  H         4.3788658117        2.2821471424       13.9785772670
  H         4.9510301629        2.7047059628       12.4024029339
  H         4.4840791074        1.0716134329       12.8604021574
  C         4.6666605241        1.4286571268        9.4812024107
  H         3.1006917536        2.7939262544        9.1252746533
  H         4.1656690251        3.2360766546       10.4856568568
  C         5.3533309829        1.6743588410        8.1944354931
  H         4.1105343390        0.5079375558        9.1813426176
  H         5.3366017528        1.2046839514       10.3204666998
  C         6.6088991118        2.6084623735        8.2058363882
  H         4.6653962738        1.9833567722        7.3591012051
  H         5.7243928676        0.7724232327        7.8145184304
  C         7.9117449445        1.9672708654        8.6793439553
  H         6.8555551573        2.8748687094        7.1971292796
  H         6.4629495713        3.4633653073        8.8930243671
  C         9.1254254944        2.8762340781        8.9477618919
  H         8.2487464799        1.1801429701        8.0526684518
  H         7.6673146764        1.4125752078        9.5659568703
  C         8.7454248519        4.2106191370        9.6981899904
  C         9.6513030161        3.6832256633        7.8209863822
  C        10.3103025262        2.1915525866        9.7982950464
  C         9.0124511689        5.3289895057        8.9410032650
  C         8.1887368288        4.5114809127       10.9765127917
  C         9.6304549160        5.0356853780        7.7637215813
  C        10.0810214051        3.0703498693        6.6178731628
  H         9.8797520810        1.7692812186       10.6996562028
  H        10.6134968198        1.3697477799        9.1899919406
  C        11.4872390078        3.1477808421       10.1682409890
  S         8.5622076342        6.7793691085        9.6673083643
  C         8.1151969889        5.8877262725       11.1118152649
  H         7.9533405405        3.6719928829       11.5664193395
  C        10.0080930400        5.6440272181        6.6156702895
  H        10.0602407334        2.0134643181        6.5410281300
  C        10.3895209253        3.6753424868        5.4667594928
  H        11.0257763457        4.0019074356       10.7221673630
  H        11.9458055936        3.4729872916        9.2145092694
  C        12.5721539665        2.6104249431       11.1383932142
  C         7.6310000606        6.4964726293       12.3818805056
  C        10.4053641444        4.9743364697        5.4206976248
  H         9.7781446988        6.6870668409        6.5160924202
  C        10.8113939489        3.2606288386        4.2356022650
  H        13.3935325612        3.2412264847       11.1654652964
  H        12.8002563550        1.6011723799       10.8436844497
  C        12.0663649916        2.6704045419       12.6175755407
  C         7.6522319584        7.8810485774       12.6431959000
  C         7.2613934110        5.6185052330       13.4892544493
  C        10.7250566549        5.6620937995        4.1475976368
  C        10.8558449710        4.3141728224        3.4067174561
  S        11.1360362238        1.7335681250        3.5869065411
  H        11.9321035607        3.7107901817       12.9083261615
  H        11.0372849100        2.1822773824       12.7009607976
  C        13.0081669310        2.1190837421       13.6301059218
  N         8.0291305292        8.8383107222       11.6964634669
  C         7.2932573805        8.4110728983       13.8493113388
  C         6.9712218762        6.1536673876       14.7688674885
  H         7.0883448253        4.5822589089       13.4332438582
  C        12.0423209738        6.4494937583        4.3415609292
  C         9.4535469693        6.4817589078        3.6596856292
  C        11.2150914041        3.8982523954        2.1264688411
  C        11.3356478076        2.5317592369        2.0610479741
  H        13.7965026363        2.8575970012       13.5225884954
  H        13.4161074024        1.2030947579       13.4018163507
  C        12.3984010540        2.2099044104       15.0446016466
  S         7.8065233689       10.3202994521       12.3444233273
  N         7.3181673215        9.8181835501       13.8292971556
  C         6.9863008843        7.6179255993       14.9734682173
  H         6.5993697179        5.4236467513       15.5254910388
  H        11.8742086102        7.2016157103        5.0531271712
  H        12.2391235609        6.9578133748        3.3596922795
  C        13.3725630698        5.5535063031        4.6558342270
  H         9.4715911079        7.4862057274        4.0954807171
  H         9.5074398719        6.7204913051        2.6157979919
  C         8.0926520664        5.7655581591        3.6494799726
  H        11.2930287496        4.6543457929        1.3782137564
  C        11.6443096460        1.8351019867        0.8170580887
  H        12.1068777346        3.2380642688       15.1761114391
  H        11.6999660488        1.4965812836       15.3533448016
  C        13.4134292034        2.1608230508       16.2310542573
  C         6.6645625602        8.3292980373       16.1778758105
  H        13.1412794081        4.8609157945        5.4965236681
  H        13.6743170893        4.8766717583        3.8762782265
  C        14.4425216609        6.4017628494        5.2571544442
  H         7.7832000674        5.5442111635        4.6649201911
  H         8.3233772938        4.7341420837        3.2535351888
  C         7.0415064447        6.5440772240        2.8348506788
  C        11.8367838227        0.4265582525        0.6348142892
  C        12.0381097738        2.6451767070       -0.4350828583
  H        14.1850140348        2.8914529330       16.0851221282
  H        13.8750028637        1.1494633778       16.1637004324
  C        12.9592689776        2.5570777885       17.6114152826
  H         6.6528751064        9.4016903028       16.1129491839
  C         6.3951477934        7.8622047654       17.4550378198
  H        14.0689830954        6.7814949240        6.1650902376
  H        14.7415564205        7.1975628568        4.5875217182
  C        15.5815193938        5.4534553862        5.6239519283
  H         7.2418211315        7.6635633845        2.8556538624
  H         7.2395118140        6.1761066526        1.8024233729
  C         5.6246000283        6.1986803160        3.2424463375
  N        11.6130540795       -0.5346322519        1.6117358150
  C        12.2109709100       -0.1706761337       -0.5493537779
  C        12.4541975862        1.9821780116       -1.6292978174
  H        12.0033539416        3.7304562911       -0.4797688101
  H        11.8523199636        2.5182740623       17.7917408703
  H        13.2678800074        3.5975085230       17.7415336459
  H        13.4027912541        1.8684574434       18.2892414508
  S         6.1161049030        6.2408675383       17.9310097460
  C         6.1773791378        8.8376760532       18.5810210066
  H        15.2328219647        4.5609804583        6.1298139771
  H        15.9195374167        5.0811752111        4.6324602324
  C        16.7122367654        6.1268585858        6.3500713924
  H         5.4434920622        6.9011400463        3.9922131404
  H         5.6824143031        5.1825290890        3.5581373694
  C         4.6653394461        6.4020605093        2.0878815417
  S        11.7349125340       -2.0057167570        1.0577888852
  N        12.1583374920       -1.5953820903       -0.4664645020
  C        12.5026475255        0.5141814985       -1.7503058585
  H        12.6247918091        2.6157339001       -2.5086941365
  C         5.8106546241        6.9075402474       19.5663517236
  N         5.8383873147        8.2648068541       19.7271951333
  O         6.1028322298       10.0129098441       18.3538730346
  H        17.2787730147        6.7837802225        5.7035404675
  H        16.3680272706        6.7168558714        7.2049540068
  C        17.5915765515        5.1752966847        7.0584474973
  H         5.1686646858        6.3339772493        1.1531617295
  H         3.9105935144        5.6123505592        2.1626762455
  C         4.0132408163        7.7251408921        2.2018698615
  C        12.7860657914       -0.2740999374       -2.9075249267
  S         5.5691249589        5.8270917073       20.8802464376
  C         5.8103767057        8.8333619029       21.0134589460
  H        16.9945346275        4.4942242471        7.7128122874
  H        18.1088333508        4.5260726054        6.3166760669
  C        18.7037252871        5.9279335088        7.8629654574
  H         3.4219382970        7.9336768190        3.1665543995
  H         3.2348955414        7.5446034068        1.4995119847
  C         4.9119466219        8.8711222899        1.7333952883
  H        12.5973466357       -1.3432704950       -2.9215735211
  C        13.3384464131        0.1470456036       -4.0298874890
  H         5.1163378680        8.3699632862       21.6925223077
  H         5.4596434864        9.8817937275       20.9795862698
  C         7.1834037103        8.8626642654       21.7020505035
  H        18.8798450595        5.3739614367        8.8035427187
  H        18.5243484481        6.9663232933        8.0853311377
  C        19.9579968231        5.9353224501        6.9948515751
  H         5.6666318478        9.0603950244        2.5150775868
  H         5.4828181175        8.6344597518        0.7934826530
  C         4.0361593405       10.0581583589        1.3869301861
  S        13.9481465214        1.7162213502       -4.4020414689
  C        13.2655184186       -0.8115221332       -5.1452418124
  H         8.0161946161        9.1993020504       21.0525482301
  H         7.5849402005        7.8711782797       21.9368723843
  H         7.3133037305        9.5889506731       22.6013916711
  H        19.8455037026        6.4978208382        6.1178536162
  H        20.7500767833        6.2974486337        7.6489844072
  H        20.2919472148        4.9338232860        6.7036131855
  H         3.6526902421       10.4756421438        2.2780584451
  H         4.4927211002       10.9526760232        0.9612615196
  H         3.1888081782        9.8216934815        0.7442143206
  C        14.1700895332        1.0551344100       -6.0503340072
  N        13.8372026320       -0.2602485045       -6.2000361516
  O        12.7820633627       -1.9057148029       -5.1162388824
  S        14.7683508691        1.9971022560       -7.4901386761
  C        14.0071463596       -0.9951920045       -7.4412437247
  H        14.1849830167       -2.0221969955       -7.2671835598
  H        14.9154400269       -0.8231573104       -8.0404130564
  C        12.8143389832       -0.7905369446       -8.3601378745
  H        12.7842612077       -1.4436670368       -9.2488200911
  H        12.8364375329        0.2265040099       -8.7196661872
  H        11.8798097577       -0.9197208319       -7.7880229089
  H        -1.0780303901       13.1386719747       17.1872896949
  C        -1.4705484128       13.9754779058       16.6250988513
  H        -0.6020868694       14.3970060503       16.0618754687
  C        -2.2246759256       14.8924689261       17.6774642087
  C        -2.4468792736       13.5370353197       15.5432557297
  C        -2.8646451650       14.0731572961       18.8397361355
  H        -1.5050232252       15.6304946527       18.0538935087
  H        -3.0336905836       15.5206918829       17.3355522024
  H        -2.4832782342       14.0604013605       14.6322230751
  H        -1.9861916325       12.6065111448       15.1795103181
  H        -3.4034444682       13.4089973339       16.0177308917
  C        -1.8363348700       13.4097249009       19.8237869899
  H        -3.4741787566       13.3019971144       18.4529714164
  H        -3.6078598710       14.5641601245       19.4475191921
  C        -2.2862135820       13.2309195097       21.2886703976
  H        -1.6265951656       12.5229148463       19.3249483448
  H        -0.9229138920       13.9466189672       19.7583179090
  C        -1.1609316359       12.5471361348       22.0786068818
  H        -3.1820895359       12.6032951868       21.2237927688
  H        -2.5683145062       14.1732838683       21.7390439291
  C        -0.0483924572       13.5017443616       22.5074127189
  H        -1.6034444829       12.2402160156       22.9938267547
  H        -0.7339264731       11.7034401230       21.5183835772
  C         1.0840251688       12.8123949594       23.3017319401
  H         0.3635897349       14.0789332297       21.7140249072
  H        -0.2706609144       14.2960897510       23.1945974648
  C         1.4644438439       11.4876158840       22.6831497294
  C         0.6612803742       12.1137625155       24.5800180169
  C         2.3548075214       13.7003548663       23.4664539531
  C         1.1018536693       10.3877558169       23.4211674077
  C         1.9794002833       11.0743677275       21.4530109973
  C         0.5950030999       10.7700883297       24.6425446103
  C         0.1879523303       12.7420420956       25.7437008478
  H         2.5790220290       14.1697466607       22.5069167726
  H         2.1117088901       14.4308077862       24.1747974396
  C         3.5967952805       12.9172708532       24.0262018638
  S         1.3608421243        8.8597471556       22.7502313010
  C         1.9872390997        9.7199244919       21.3507583706
  H         2.1369435698       11.7961081776       20.6786400631
  C         0.1041671184       10.1458869270       25.7479888973
  H         0.1104327478       13.7613722493       25.6707435968
  C        -0.2078836214       12.1223184344       26.9000577651
  H         4.0386840636       12.3850011451       23.2192430354
  H         3.2727855684       12.1805980370       24.7873564482
  C         4.8527696231       13.8046321475       24.3566601734
  C         2.3086301542        8.9170089779       20.0770858280
  C        -0.2679513654       10.7660504666       26.9294920141
  H         0.0281704783        9.1163512059       25.7641752845
  C        -0.6607075675       12.4541686320       28.0844415197
  H         5.4793676177       13.1655445765       24.9709299347
  H         4.5500111792       14.6445260401       25.0655052223
  C         5.6032830105       14.4197491754       23.1774967139
  C         2.1476135129        7.5384883483       19.8281590825
  C         2.7689344565        9.7699091402       18.9190946199
  C        -0.6703252269       10.0475360684       28.1625325973
  C        -0.9354083758       11.3662068730       28.8844907539
  S        -0.9230672800       13.9759360950       28.9156230558
  H         6.2617667973       15.2539911739       23.3113029518
  H         4.7379703152       14.8875231021       22.6156107249
  C         6.2347981051       13.2915566254       22.3367608378
  N         1.6505630119        6.5745594726       20.7401265258
  C         2.4310005282        6.9582502919       18.6107063338
  C         3.0761688198        9.1649803838       17.7914268996
  H         2.8776147531       10.8632831239       18.9582153591
  C         0.5307262890        9.2224227688       28.7358217106
  C        -2.0760499701        9.3195915028       28.0643446232
  C        -1.3278936181       11.7375940660       30.1713188637
  C        -1.3392299320       13.1107457222       30.3762021657
  H         7.2962273500       13.4160642335       22.3723454834
  H         6.1243712067       12.3467083405       22.7498111205
  C         5.7510498949       13.2841547537       20.9165556030
  S         1.7809979502        5.1270696541       20.0358700930
  N         2.1437811357        5.5801902143       18.5471468783
  C         2.9554293746        7.7099332552       17.5820267233
  H         3.4252411698        9.7953394175       16.9706937657
  H         0.9242637772        8.6224816160       27.9345090019
  H         0.1980466709        8.3595699505       29.3168877542
  C         1.7579874932       10.1052866378       29.2439801231
  H        -2.0720941057        8.5825479643       27.2548388584
  H        -2.3191326618        8.8643070650       29.0112398445
  C        -3.1984084613       10.2605300063       27.6378957736
  H        -1.7006089099       11.0422126654       30.8951814391
  C        -1.6421062079       13.8630321454       31.6461125894
  H         5.2832179693       14.2184810021       20.6403904864
  H         5.0527733316       12.4902457251       20.9852752648
  C         6.7606303402       12.8209529715       19.8430928802
  C         3.2079792739        7.0763071548       16.3111433890
  H         2.1332905925       10.8221817259       28.5118448922
  H         1.2146551720       10.8190636929       29.8763442628
  C         2.7704426561        9.2375717348       30.0460085659
  H        -2.8597376131       10.9387933989       26.8124094963
  H        -3.3884009011       10.9250839200       28.4268356569
  C        -4.4168943517        9.3470181787       27.2725519773
  C        -1.8058394196       15.2527254572       31.7554612018
  C        -1.7717545614       13.0180922672       32.8703700836
  H         7.1606323483       11.8255383746       20.2289278668
  H         6.2600440360       12.5799843461       18.8633636431
  C         7.8456717219       13.8255567287       19.5180956918
  H         3.1200395566        6.0495521393       16.3311927868
  C         3.5204324599        7.6292282471       15.0582281801
  H         3.1472164002        8.4763692345       29.4332520427
  H         2.1850276634        8.9274135555       30.8654821192
  C         3.9791664815       10.0130615034       30.6646469291
  H        -4.1956689122        8.6519241132       26.4086883568
  H        -4.6224588822        8.5177766948       28.0649530744
  C        -5.7122622019       10.1741935106       27.0677880786
  N        -1.5322278869       16.1757250079       30.7460151006
  C        -2.1244189882       15.8586047793       32.9728622117
  C        -2.1665667540       13.6609244187       34.0414386653
  H        -1.7700589681       11.9578527661       32.8226562251
  H         8.3324297189       14.1504067131       20.4428141054
  H         8.4741267647       13.2385480331       18.7653429703
  H         7.3165968345       14.6967833506       18.9596579616
  S         3.8700714369        9.2600770604       14.5835303631
  C         3.5879045975        6.6737091502       13.9915650180
  H         3.8730753631       11.0306319898       30.3453167744
  H         3.7700821303       10.1153262165       31.7127995966
  C         5.2744850559        9.3388279925       30.1719276663
  H        -5.4211915960       11.2315916365       26.8174257318
  H        -6.3311830688       10.1038150316       27.9583887596
  C        -6.5746524241        9.7044774463       25.8923045418
  S        -1.5756224200       17.6379251594       31.3257101804
  N        -2.1801268027       17.2158553964       32.8054941903
  C        -2.2800759234       15.1384057811       34.1553636859
  H        -2.1362826751       12.9709924194       34.8929544361
  C         4.1529592700        8.6074295432       12.9993833225
  N         3.9532635372        7.2748213993       12.8538870644
  O         3.3229957955        5.5223335473       14.1274290560
  H         6.0747388731       10.0473752717       30.2748954545
  H         5.2696040414        9.0851203102       29.1828388168
  C         5.5703025316        8.0634149780       30.9888058972
  H        -6.0498296513        9.3917821741       24.9535582277
  H        -7.1611124612        8.9264054790       26.2749072694
  C        -7.4471092287       10.8790585179       25.3881885902
  C        -2.5310081661       15.9151262468       35.3021254631
  S         4.4398113952        9.5327926065       11.5473464045
  C         3.8096297572        6.5091033265       11.6126470671
  H         5.8727464324        8.3212330217       31.9630499164
  H         4.7791540912        7.3574519131       31.1771521165
  C         6.6737832454        7.2855516744       30.3365552879
  H        -6.9706237587       11.5552050952       24.7364165501
  H        -7.8677177652       11.5001024875       26.1833272253
  C        -8.5648664785       10.3660417040       24.5381381063
  H        -2.5119323355       16.9871384882       35.2899675388
  C        -2.9647631795       15.4735300610       36.5697928069
  H         4.4994455797        6.7837203426       10.9217122394
  H         4.0656497852        5.5088170972       11.7375093914
  C         2.4679051220        6.5112370102       11.0205325769
  H         7.5009605164        7.8907797646       29.9297783231
  H         6.2456856552        6.7918308260       29.4964111731
  C         7.1792814835        6.2658955976       31.4117959664
  H        -8.6995437432       11.0703676994       23.7565114804
  H        -8.3602298664        9.4113650468       24.0934792997
  C        -9.8718866257       10.3038297481       25.2467616824
  S        -3.6574687846       13.9110393205       36.8727265187
  C        -3.0604413081       16.4119701905       37.7226771706
  H         2.1798865147        5.5023379336       10.6634648082
  H         1.7292096574        6.9097036350       11.6719534545
  H         2.6169569982        7.1836445383       10.1576581930
  H         7.2941012351        5.3131282225       30.9160348300
  H         6.6478713923        6.1407547648       32.2925481041
  H         8.1170760289        6.6434991118       31.6699865739
  H       -10.1526065172       11.3421269929       25.4609728955
  H        -9.8073604490        9.7450658919       26.1376032154
  H       -10.6230352670        9.8102253208       24.5730206527
  C        -4.0688346008       14.5140921022       38.4547437182
  N        -3.6799165874       15.7795762082       38.7357465689
  O        -2.8296914002       17.6455370496       37.5923847824
  S        -4.7785567634       13.5520883240       39.8040237556
  C        -3.8979437090       16.4085776573       40.0782227794
  H        -4.4752996583       17.2683934764       39.9423737633
  H        -4.5740869401       15.8590412172       40.8305779365
  C        -2.5845171242       16.8987922476       40.7640853072
  H        -1.6017104098       16.6968957588       40.2214528192
  H        -2.5000609261       17.9872465897       40.9348874198
  H        -2.4295932366       16.4152648928       41.7064044999
