352
i=
  H         4.7704077627        0.6659158681       12.1198982810
  C         4.4843933657        1.6971409019       12.3400286636
  H         5.4476461662        2.3270346418       12.2571861901
  C         3.3215387446        2.0009328526       11.4256042318
  C         4.0376351929        1.7223610359       13.8571885943
  C         3.6991626723        2.4065393658        9.9839118046
  H         2.6203232902        2.7827189816       11.8257036926
  H         2.6600081347        1.0950216306       11.3154532864
  H         3.7006660126        0.7629645181       14.1366149030
  H         3.1736258736        2.4631418813       14.0842467970
  H         4.8817394997        1.8602084228       14.5226913295
  C         4.5410183484        1.2829841463        9.3387490340
  H         2.7804403716        2.6290204314        9.4268884058
  H         4.3504244616        3.3246452406        9.9734676114
  C         5.2198965959        1.7718096522        8.0392901768
  H         3.7600904964        0.4637565794        9.2056592553
  H         5.2543874010        0.9162538097       10.0570136566
  C         6.4020175263        2.6726315708        8.3967119956
  H         4.5054832780        2.3729305399        7.4825202225
  H         5.5881086703        1.0064352725        7.4234418403
  C         7.6405390991        1.9337126859        8.8938206163
  H         6.6501165145        3.3684317253        7.5203978124
  H         6.0986570701        3.4458427435        9.1405451377
  C         8.9728150549        2.6378882054        8.9770155399
  H         7.9345621750        1.0925695013        8.2199938389
  H         7.4307964427        1.6019751841        9.9071122449
  C         8.6273040495        3.9765666419        9.6627430704
  C         9.4147062806        3.4164416582        7.7401717070
  C        10.0623323355        1.8400951395        9.7014236190
  C         8.8367939490        5.1151347716        8.8816424387
  C         8.1732607895        4.3089746158       10.9215635937
  C         9.2947374146        4.7597061357        7.6205991513
  C         9.9450831418        2.7592663299        6.6731202693
  H         9.5512262704        1.5108495033       10.5953196664
  H        10.3873998049        0.9659399389        9.2142408174
  C        11.2040928440        2.7129714831       10.1811923896
  S         8.4751588388        6.5992088358        9.7787841330
  C         8.0267957325        5.6770590465       11.1704609296
  H         8.0081097449        3.4426816159       11.5708313158
  C         9.7022196211        5.4176317085        6.4946337146
  H        10.0386547803        1.6884039642        6.6001970052
  C        10.3188387927        3.4345795651        5.5345183066
  H        10.8992912770        3.6470099051       10.6954136202
  H        11.7136756645        3.0547302170        9.2498301082
  C        12.2884167236        1.9673954674       10.9117985318
  C         7.5958109880        6.3955287762       12.4552380021
  C        10.1448052022        4.7989401011        5.3355486463
  H         9.6558874855        6.5054152849        6.5262307150
  C        10.7394763375        3.0046042186        4.2729704395
  H        13.2215856465        2.4864624340       10.8979996268
  H        12.5014729649        1.0194651103       10.5177806639
  C        12.0716179736        1.7291679928       12.3453620270
  C         7.6094105397        7.8116438432       12.6269491446
  C         7.2786499485        5.5899431434       13.6112504212
  C        10.5411075236        5.4408901375        4.0164922373
  C        10.8695681569        4.0469422849        3.4025170500
  S        11.0770405101        1.4682545976        3.6265465519
  H        11.4159331796        2.5777841116       12.6950802343
  H        11.5716265393        0.7633457912       12.4012646333
  C        13.3946236766        1.6704006604       13.1052093749
  N         7.9619668122        8.7781943938       11.7260196255
  C         7.3864059125        8.3236554143       13.9308854724
  C         6.9095956929        6.1315692967       14.8726916268
  H         6.9841977926        4.5413868299       13.4836152214
  C        11.7953745342        6.2792642394        4.1655011835
  C         9.3220191021        6.2474816158        3.3676385547
  C        11.2616395065        3.6320543892        2.1386010516
  C        11.4270229959        2.2815521222        2.0643582344
  H        13.8459979466        2.6580751586       13.0954404850
  H        14.1480510098        1.0154609484       12.6190328338
  C        13.3813067301        1.0427959745       14.5178037145
  S         7.8387014780       10.2118892664       12.5215158329
  N         7.5895520610        9.7077872821       14.0414859288
  C         7.0300346871        7.5800068635       15.0929724397
  H         6.7046810504        5.4091142869       15.6384142785
  H        11.5243977234        7.0761536575        4.8614870119
  H        12.0306177974        6.7959231388        3.2121272261
  C        13.1296650587        5.6208322217        4.7160826532
  H         8.9936608519        7.0047403737        4.0198699203
  H         9.6873605654        6.8129364999        2.5005361276
  C         8.1594916976        5.4188929160        2.8966741414
  H        11.1847769424        4.2833614948        1.3148866900
  C        11.6400597840        1.5461730658        0.8324425467
  H        13.2426506049       -0.0248282635       14.4129690314
  H        14.3215199575        1.1882829570       14.9540072185
  C        12.3862667010        1.6456585858       15.3966077543
  C         6.9271189314        8.2286376154       16.3939062507
  H        12.9600431027        5.1326223846        5.6937922560
  H        13.4420140094        4.8354802362        4.0432388139
  C        14.2378668039        6.6779170535        4.6703813747
  H         7.7671675885        4.8221097644        3.6886325217
  H         8.2724334258        4.6985813439        2.1129118300
  C         7.1439095354        6.3731212907        2.4098361837
  C        11.6958338315        0.0970840488        0.7216133667
  C        11.7597717191        2.3275298749       -0.4034146918
  H        11.4976260268        1.0993946667       15.2062971224
  H        12.3129416439        2.7589795505       15.2179862139
  C        12.8396196368        1.4352932609       16.8527324675
  H         7.0886709105        9.3129290275       16.4369119916
  C         6.5426538806        7.7624156074       17.6439486194
  H        14.0455381759        7.4749798969        5.3984694765
  H        14.3723929833        7.0852613425        3.7268902226
  C        15.6313102805        6.0350754200        4.9325997853
  H         7.1835922525        7.3714034010        2.8995397816
  H         7.3128670732        6.6309404981        1.3541628542
  C         5.8730710018        5.7344884406        2.5993372513
  N        11.5469454174       -0.8415157567        1.8041316146
  C        11.8976531299       -0.5494004853       -0.4558900993
  C        11.9856838439        1.6584882086       -1.5893684740
  H        11.7633526812        3.3991872698       -0.3920323736
  H        13.5049880786        2.2281171432       17.1720332709
  H        13.4765039124        0.5439424855       16.9845870833
  H        11.9299553901        1.3815755802       17.4862889097
  S         6.1519861081        6.1501226807       18.0829837019
  C         6.4958379226        8.8036556027       18.6668386233
  H        15.7061855593        5.0795788222        4.3267516133
  H        16.3447226549        6.7157616244        4.4230380347
  C        15.9008311975        5.8804498849        6.3770895749
  H         5.6337733733        5.5673629885        3.5864674388
  H         5.9048273438        4.7623530270        2.1287681309
  C         4.7324737746        6.4937542518        1.9027864700
  S        11.5216967057       -2.3364282762        1.1936082060
  N        11.8137410078       -1.9489137114       -0.3461552784
  C        12.1489484656        0.1833395958       -1.6418230100
  H        12.2691965057        2.1775533595       -2.4325688401
  C         5.9184151810        6.8973424263       19.6730809244
  N         6.0547640041        8.2396895441       19.7458217295
  O         6.8256460844        9.9601948883       18.4900280977
  H        16.3014063632        6.7977390490        6.8471071474
  H        15.0362072910        5.4357953757        6.9712222452
  C        17.0953964167        4.9432694286        6.6635822308
  H         5.0375700738        6.7060068917        0.8953172560
  H         3.8861395806        5.9026992491        1.8934829931
  C         4.3727110382        7.8051698563        2.4716113050
  C        12.5088008496       -0.4899867097       -2.8354764910
  S         5.6826993035        5.9148100486       21.1656157412
  C         5.9157996063        8.9926682781       21.0088086283
  H        16.8258539408        4.5079426777        7.5787720881
  H        17.1809934097        4.0978780692        6.0307849320
  C        18.3929997412        5.6923855490        6.8555789995
  H         4.9954869863        7.9178337709        3.2692603374
  H         3.3958662868        7.7285621926        2.9108687054
  C         4.4115610241        9.0167920027        1.5901559924
  H        12.3377011364       -1.5595833918       -2.8472357364
  C        12.9493028611       -0.1231458804       -4.0466711950
  H         5.1669263022        8.5146791027       21.6122273290
  H         5.7246156493       10.0126224530       20.8321813002
  C         7.2512218594        9.0184090553       21.7614499991
  H        18.9443120105        5.2053259364        7.5948483183
  H        18.3243341077        6.6191615034        7.3521681563
  C        19.2694505597        5.6659510573        5.6345009268
  H         5.5014874400        9.2069040805        1.3411316451
  H         3.9847031241        8.6653049847        0.6707965581
  C         3.7556061225       10.2687781611        2.0096745880
  S        13.4433354423        1.4804336406       -4.5959924055
  C        13.1332326105       -1.1431869214       -5.0971962749
  H         8.0266543120        8.7929884709       21.1115290549
  H         7.2729961672        8.2776036850       22.5705689539
  H         7.5455495193       10.0596291162       22.0103771369
  H        19.8604775303        4.7566968709        5.5567108452
  H        18.7166579285        5.7326822130        4.6646153729
  H        20.0255925615        6.4893580284        5.5454242734
  H         2.6832284482        9.9971788174        1.9539527440
  H         4.0770655973       10.6006928253        2.9999199067
  H         4.0036913813       11.0172792188        1.3036439635
  C        13.7190781677        0.7835476337       -6.1344436689
  N        13.7106001573       -0.5731704758       -6.1526289883
  O        12.7958480055       -2.3049994542       -5.0549155614
  S        14.1703887588        1.6625083143       -7.5750904767
  C        13.7641584014       -1.3856413558       -7.3689310117
  H        13.9972022682       -2.4398133095       -7.1378573792
  H        14.4910807865       -1.1489067737       -8.1081090699
  C        12.4161578108       -1.3622880776       -8.0821491054
  H        11.4897250174       -1.2553964928       -7.4700226086
  H        12.2641044325       -2.2459299131       -8.6300123989
  H        12.4119401284       -0.6126455787       -8.9323584621
  H        -3.0870560963       15.1302979211       16.4401480418
  C        -3.1577022877       14.0473848692       16.4587340445
  H        -4.1344346876       13.8654679163       16.9316935933
  C        -2.1896748682       13.4121653158       17.4559684490
  C        -3.1606740734       13.4302911936       15.0402857715
  C        -2.3148066413       13.9805125382       18.9100339086
  H        -2.4645700242       12.3320380186       17.4274338270
  H        -1.2443167808       13.5936508448       17.0008393428
  H        -4.1421855162       13.1803733059       14.6342268266
  H        -2.5428681689       13.9027553422       14.2836891612
  H        -2.7144972562       12.5201052010       15.2245109474
  C        -2.0796713535       12.8171747893       19.8116226214
  H        -3.1938656531       14.5059405130       19.1677042926
  H        -1.4316926443       14.7121418472       19.0229890702
  C        -2.5133289290       13.1636050391       21.3065404165
  H        -2.7282477466       11.9444694973       19.5878886384
  H        -1.0681353991       12.4471428957       19.8173881406
  C        -1.4940207113       12.6403053541       22.3279909773
  H        -3.3904843079       12.5638901980       21.5353030839
  H        -2.6623166022       14.2769831162       21.3625003299
  C        -0.2209488600       13.4626544182       22.4188839039
  H        -1.9087620859       12.6992055170       23.3776868608
  H        -1.4645591695       11.5544758957       22.1315512947
  C         0.9373843945       12.7762958039       23.1640649524
  H         0.1542027138       13.7512635904       21.3745814044
  H        -0.3732631665       14.4550548701       22.8211615673
  C         1.1828947236       11.3854183630       22.5817856034
  C         0.5693698154       12.0990854866       24.5037786148
  C         2.3076711602       13.4789547615       23.2269963133
  C         0.9968358581       10.3266150708       23.4695425901
  C         1.7505072893       10.9274734235       21.4277533803
  C         0.4683492279       10.7846913990       24.6137554307
  C         0.1099202483       12.8006402826       25.5761016200
  H         2.8445934562       13.5410588931       22.2367955944
  H         2.1323642153       14.4658991626       23.5040809288
  C         3.3141435089       12.9383483531       24.2443747290
  S         1.6526054466        8.7986548355       22.8837653537
  C         2.0112138816        9.6100327437       21.3460438891
  H         2.0254856800       11.6639972377       20.6993903111
  C        -0.0120278381       10.2810433957       25.7988242209
  H         0.1509600563       13.8317743339       25.3581532386
  C        -0.2501080751       12.3354174026       26.7833852059
  H         3.5441077835       11.8958584338       24.0354789211
  H         2.7912982066       12.9490788977       25.2089006226
  C         4.6610327209       13.6634011197       24.4004903784
  C         2.4756533334        8.8505423708       20.0834515260
  C        -0.3842346526       10.9886226202       26.9702731369
  H        -0.0108898744        9.1802092438       25.7643429664
  C        -0.6711736215       12.8194200441       27.9730009915
  H         5.2609007342       12.9732614706       24.9765842318
  H         4.5464680406       14.6088513907       25.0308497989
  C         5.3375455862       14.0433125830       23.0433166081
  C         2.3616634435        7.4277662580       19.9228363522
  C         2.8400566904        9.6182176744       18.8766638622
  C        -0.8175086612       10.4114820224       28.2434219411
  C        -1.0075277571       11.8256133885       28.9124306893
  S        -0.9491756649       14.3986136973       28.5930334173
  H         6.3741708366       14.1974946384       23.2403414063
  H         4.8229405280       14.9309880153       22.6303579791
  C         5.4386607123       12.8467255793       22.0087183241
  N         2.0698025630        6.5322075832       20.9077496994
  C         2.7149088927        6.8290520409       18.7136195344
  C         3.2619105749        8.9763738246       17.6990916307
  H         3.1543675892       10.7351752336       18.8880494487
  C         0.2909923825        9.5688563033       28.8742798748
  C        -2.1739567829        9.7009763732       28.1745204698
  C        -1.4848150096       12.3726738493       30.1267137984
  C        -1.4281542446       13.7636433124       30.1510960671
  H         6.2786785080       12.2892463799       22.2641326466
  H         4.5618481187       12.2052577478       21.8369916735
  C         5.8038717521       13.3895886704       20.5942895623
  S         2.0294542807        5.0622025002       20.2339032755
  N         2.4067918866        5.4833466075       18.7151702286
  C         3.1760865990        7.4976598626       17.5449079775
  H         3.5758354386        9.5413582381       16.8625552920
  H         0.5511209599        8.7521081371       28.2263026755
  H        -0.0715626170        9.2176819433       29.7819826798
  C         1.7095680986       10.3077845100       29.1293780799
  H        -2.1920890710        8.6875348200       27.8426361195
  H        -2.6303476381        9.5601863206       29.1878588735
  C        -3.2696939468       10.3268295267       27.3285732879
  H        -1.8039791188       11.7227342962       30.9297961046
  C        -1.6758227320       14.5819393816       31.3619100575
  H         5.1604542803       14.2759152285       20.4512643335
  H         5.6029004878       12.6240360234       19.9210807321
  C         7.2835670415       13.6365783746       20.3910979735
  C         3.4368188713        6.7065572698       16.4684628838
  H         2.0358959421       10.9518184218       28.3426963956
  H         1.5577481413       10.9815978303       29.9333461201
  C         2.7347347962        9.2511091782       29.4470791383
  H        -3.0532085087       10.3906592191       26.2878297416
  H        -3.4469036243       11.3383965033       27.7088385041
  C        -4.6719016127        9.7294141767       27.5268583611
  C        -1.6299029425       16.0112543651       31.4953584784
  C        -1.9187445079       13.8488302118       32.6249273667
  H         7.5981378773       14.6032953277       20.7855401454
  H         8.0270651304       12.8954495658       20.7433345155
  C         7.5058941825       13.6831035173       18.8757536819
  H         3.5325648952        5.6681898999       16.6844445143
  C         3.7576751272        7.0799647342       15.1578046985
  H         2.9589336099        8.6289175865       28.4923778446
  H         2.3168100296        8.5749500588       30.2544117013
  C         3.9901586820        9.9331568065       29.9862949180
  H        -4.8539434250        8.9771121121       26.7448071305
  H        -4.8692368015        9.2842770007       28.5041845747
  C        -5.7004306334       10.8065242752       27.4571827878
  N        -1.3562847500       16.8715220754       30.4351159849
  C        -1.8834472315       16.6640419852       32.7024375493
  C        -2.2268165149       14.5119588145       33.8078244837
  H        -1.8685063258       12.7861368020       32.7877966251
  H         8.4088515978       14.2232579290       18.5133897790
  H         7.6974854095       12.6571146923       18.6322770432
  H         6.7176901693       13.9562061925       18.2094828443
  S         4.0965433979        8.6782802034       14.5944871267
  C         3.7191077071        6.0624995329       14.1371471030
  H         4.2370279654       10.7246729280       29.2683769340
  H         3.7456754023       10.4299478285       30.8907427929
  C         5.1984397344        9.0456054492       30.0217738818
  H        -5.5067803066       11.5288967485       26.7101345025
  H        -5.7052847266       11.3068068298       28.4333758971
  C        -7.0928133488       10.1953515479       27.2281082957
  S        -1.3832313621       18.4397928964       30.9810923167
  N        -1.7432362117       18.1081354412       32.5068933592
  C        -2.2339896263       15.9732771271       33.8906016964
  H        -2.3474847573       13.8910381252       34.7336336236
  C         4.1154022196        7.9910532979       12.9791509527
  N         3.8526095615        6.6836400955       12.9311557461
  O         3.3942718539        4.9073002505       14.3856318198
  H         6.1067694507        9.6503989658       30.2359552481
  H         5.2592969117        8.4917792063       29.0863217386
  C         5.1394611549        7.9906446832       31.1512926012
  H        -7.0886367306        9.1104102058       27.4373715068
  H        -7.8799759784       10.6701346747       27.9430503276
  C        -7.5304492528       10.5033367803       25.8180971063
  C        -2.4716644327       16.7570621507       35.0950415125
  S         4.5360614858        8.8674314664       11.4614153830
  C         3.5490871119        5.9691197011       11.6682002094
  H         5.1227152811        8.5160333880       32.1260448166
  H         4.3059685160        7.3524156922       31.0027940007
  C         6.3985817446        7.1374925170       31.1781996203
  H        -6.8106302723        9.9748420993       25.3290945186
  H        -7.2946176079       11.6063581008       25.6161655799
  C        -8.9086733745       10.0063169198       25.4041229736
  H        -2.1194678861       17.7442458318       34.9332429729
  C        -3.1006985074       16.5017775972       36.2773235517
  H         4.1096063025        6.2501752365       10.7039788974
  H         3.7614635630        4.9155000136       11.9418051168
  C         2.0662116861        6.2286158418       11.3411562421
  H         6.6817461120        6.7783599330       32.1321325701
  H         7.2066279909        7.8020443274       30.8604377092
  C         6.2591676680        5.8644472868       30.2190910302
  H        -9.2732181323       10.6303362779       24.5501751150
  H        -8.8650970324        9.0506798229       24.8691955184
  C       -10.0858639074       10.1065539425       26.4256731279
  S        -3.6176167161       14.9887255124       36.9053870141
  C        -3.2147473004       17.6498091010       37.1998032804
  H         1.8781558732        6.8679210129       10.4663632316
  H         1.4801772949        5.2688598794       11.4458500603
  H         1.6676176216        6.7625188275       12.1946647603
  H         7.2687901664        5.4416063161       30.2250101294
  H         5.8591490849        6.1378595919       29.1872340838
  H         5.4563877513        5.2400223223       30.7246903385
  H        -9.7298612095        9.6150129257       27.3859176783
  H       -10.9733606225        9.5156936412       26.1588057917
  H       -10.5889996681       11.0416985163       26.7088294478
  C        -3.8920248476       15.8354278768       38.4051212219
  N        -3.7372555288       17.1895268229       38.3538779833
  O        -2.8304058830       18.7583061047       36.8607958766
  S        -4.4084692396       15.0797806630       39.9127376789
  C        -3.7046101961       18.0394408731       39.5439809071
  H        -3.7850062346       19.0402065292       39.2021003612
  H        -4.5091757484       17.7382873467       40.2407975228
  C        -2.3745308769       17.9415031744       40.3205540974
  H        -1.5050365696       18.4156293422       39.8991078727
  H        -2.4940235467       18.6023820879       41.2114631018
  H        -2.1408617680       16.9692544364       40.6337585442
