352
i=
  H         4.0872131778        1.3118853753       12.6380164648
  C         4.3499835646        2.3195060115       12.8242873591
  H         5.4547956841        2.1476193914       12.8707338115
  C         3.8533443419        3.2309511334       11.6282551327
  C         3.8251775528        2.6448896842       14.2518327386
  C         4.8568709849        3.2780565303       10.4997321282
  H         3.8381644127        4.2375893797       12.0451786759
  H         2.8274503357        2.8891129281       11.3292165724
  H         4.2874711958        1.9218199836       14.9415827000
  H         2.7883939571        2.5955798559       14.3316735076
  H         4.1214464994        3.5701194537       14.6966632520
  C         5.1906866666        1.8613290234       10.0448372527
  H         4.6453063118        3.9216634950        9.6787643591
  H         5.7719677351        3.6197585371       11.0212758862
  C         5.7459363736        1.7855459805        8.6295840524
  H         4.2735539678        1.3406604427        9.9954054769
  H         5.8648826720        1.3232212880       10.7576715457
  C         7.0006075659        2.5686096599        8.4356616389
  H         4.9685537306        2.1319116247        7.9450112248
  H         5.8021924969        0.7271489771        8.3184899155
  C         8.2179696549        1.8315985928        9.0409762662
  H         7.1736056493        2.6427718134        7.3124279723
  H         6.7728624852        3.5322869361        8.8761140504
  C         9.3939021243        2.7304776409        9.1511446936
  H         8.4176651785        0.9538738392        8.4923115594
  H         7.9078903495        1.5124733184        9.9982210627
  C         9.0672659881        4.0873127903        9.8176145319
  C         9.7661044893        3.4104149624        7.8614470323
  C        10.6066265632        2.0079754012        9.7832315478
  C         9.1947694097        5.1678804669        9.0217445160
  C         8.5857275146        4.4457712515       11.0542404841
  C         9.6684769916        4.7750473751        7.7808306084
  C        10.2066693823        2.7587248410        6.7144667759
  H        10.0861936957        1.2488655156       10.4802365392
  H        11.1787610688        1.4703731579        9.0171736527
  C        11.6636394583        2.9193885249       10.3571091425
  S         8.5836605461        6.6505787398        9.6789714128
  C         8.1611117254        5.7396979311       11.1116983872
  H         8.3422923544        3.7210259788       11.8315837204
  C        10.0615148403        5.3917930511        6.6327381748
  H        10.1315252530        1.6602428430        6.7503916340
  C        10.5337006856        3.4491312901        5.5324188193
  H        11.2484513336        3.7144443228       10.9626785276
  H        12.2622509457        3.4385539965        9.5944617752
  C        12.6934540670        2.1982147080       11.2363528692
  C         7.5024156388        6.4269619050       12.2601076552
  C        10.5757860705        4.7798927100        5.4363562358
  H         9.9810060714        6.5042690399        6.6208193691
  C        10.8627325647        3.0518823026        4.2539264837
  H        13.6942092557        2.4665940070       10.8723357115
  H        12.4115228438        1.1718935008       11.2059562981
  C        12.6680312323        2.7684690291       12.6103688696
  C         7.7323409303        7.7915174800       12.6555903222
  C         6.9258147035        5.6084119260       13.3466895008
  C        10.9460108959        5.5057686618        4.1665905887
  C        11.0842131737        4.1349873978        3.4515256477
  S        11.2364624928        1.5292987482        3.5277435323
  H        13.3572481925        3.6075307899       12.6977436284
  H        11.6332350459        3.2218686737       12.7790467394
  C        12.9118196867        1.7225829578       13.6245239250
  N         8.2331450514        8.8376292330       11.7956951534
  C         7.4356715481        8.2621976960       13.9235434572
  C         6.6455411814        6.0707675711       14.5859275814
  H         6.7085037805        4.5547329357       13.0991587040
  C        12.1982926293        6.3547712341        4.2704144729
  C         9.8001943714        6.3472191204        3.5381725126
  C        11.4516386780        3.7326550964        2.1663634685
  C        11.4167022385        2.3421551069        2.0501253388
  H        13.8446323587        1.4132633234       13.3967684681
  H        12.2137072197        0.9247689596       13.5488929847
  C        13.0452105501        2.2984464650       15.0369909320
  S         8.1204003885       10.2030931940       12.6615215419
  N         7.7017031389        9.6124700959       14.0554633904
  C         6.8856730366        7.5275363536       14.9840912925
  H         6.1198345378        5.4220548083       15.3024762264
  H        11.8947214388        7.2807123865        4.7238166965
  H        12.4077557584        6.5821977078        3.2567652601
  C        13.3936644034        5.6521077753        4.8588574819
  H         9.6268898357        7.1215263869        4.2269544096
  H        10.2489429599        6.6871515062        2.6139559221
  C         8.5401873369        5.5336339379        3.2549680673
  H        11.7116233956        4.5191423978        1.4715225391
  C        11.7360955898        1.4869001843        0.8376259579
  H        13.9397202708        2.7450521545       15.2184417617
  H        12.2426394501        3.0746004022       15.2219239045
  C        12.7800580098        1.2279923962       16.0902593383
  C         6.5997406202        8.1183426301       16.2453311424
  H        13.1492068977        5.2162733186        5.8536483794
  H        13.7631688863        4.8073557868        4.2339042884
  C        14.5184838987        6.5957110496        5.0648865429
  H         8.2019794834        4.9331390314        4.0800187502
  H         8.7049491792        4.8215247814        2.4720055524
  C         7.4022148445        6.3360843193        2.6516657781
  C        11.7359997516        0.0340168115        0.7227561570
  C        11.9105250463        2.2111487173       -0.4419431180
  H        13.5591444411        0.5080550242       16.2525015162
  H        11.9228336120        0.5586538519       15.7913996257
  C        12.3852641865        1.7960421180       17.4845634737
  H         6.6620693553        9.2016471937       16.2095531591
  C         6.3085877367        7.5941789678       17.4784790223
  H        14.4591507694        6.9867919919        6.0929043015
  H        14.4754477550        7.3646092514        4.2882035729
  C        15.8660116759        5.8151827501        4.9629260924
  H         7.1535815436        7.0908632583        3.4346954250
  H         7.6981037325        6.9384464826        1.7957104278
  C         6.0791141815        5.5309236252        2.4067802501
  N        11.5458335022       -0.8356891922        1.8047499156
  C        12.1485844202       -0.6707295507       -0.4430332898
  C        12.1755562798        1.5369289235       -1.5922904811
  H        11.8045040064        3.2655128153       -0.4529006978
  H        13.1987091852        2.3341579091       17.9891798603
  H        12.0732554270        1.0420907072       18.2501994172
  H        11.6466621782        2.5558043595       17.5516568453
  S         6.0924010103        5.9194657540       17.9868506077
  C         6.1450297441        8.5643578639       18.6263656451
  H        15.7349392067        4.8936836212        4.4242022330
  H        16.5854514732        6.4600260460        4.4774581581
  C        16.3784047600        5.5238002450        6.3844201060
  H         5.7218110760        5.1063465186        3.3233695376
  H         6.3114578541        4.6909764018        1.7555260125
  C         4.9742065172        6.3916734430        1.7785157714
  S        11.9275174663       -2.3499173287        1.3284699840
  N        12.0987172287       -2.0100393000       -0.2366828903
  C        12.4453209291        0.0649523110       -1.6004548157
  H        12.4547254470        2.0462042148       -2.4698008021
  C         5.9057714973        6.5416680876       19.6021743084
  N         6.1134401111        7.8953369374       19.7672454081
  O         6.2579726044        9.7936641635       18.6050504701
  H        16.4178269706        6.5668301834        6.7314437536
  H        15.6247482323        4.9300680461        7.0016958088
  C        17.7385902717        4.7808496030        6.5156776863
  H         5.4949129421        6.9249906594        0.9490220815
  H         4.1918843030        5.7731219173        1.2724841894
  C         4.4126957989        7.4204720425        2.7456381145
  C        12.6442241320       -0.6922362002       -2.7658546150
  S         5.7894016937        5.5856167328       21.1062440014
  C         6.0421713014        8.5639600685       21.0422028416
  H        17.8994889623        4.5507983996        7.5711256862
  H        17.6185541418        3.7975531998        5.9923768240
  C        18.8530222210        5.5671524826        5.8817991255
  H         4.8705574843        7.2838273363        3.7416966489
  H         3.3777487761        7.1078544075        2.8829280851
  C         4.5014160467        8.9032180612        2.3309477351
  H        12.4931268979       -1.7267688431       -2.5221883058
  C        13.2263522407       -0.3881486816       -3.9674590321
  H         5.5617542140        7.9422667164       21.8167739937
  H         5.3709523891        9.3371003857       20.9431501380
  C         7.3944222357        9.1869832094       21.4949769127
  H        18.6821656920        6.5795611087        6.1452834465
  H        18.8744290897        5.3951164188        4.8275494793
  C        20.3128693466        5.3559325491        6.3486080505
  H         4.5170562214        9.5372646963        3.1956194510
  H         5.4380567138        8.9830947549        1.7741466024
  C         3.2490731344        9.0786393238        1.3730216786
  S        13.7662571332        1.1272066452       -4.4431742128
  C        13.2345547228       -1.4487439464       -4.9827829745
  H         8.0504415848        9.1703247522       20.6653845796
  H         7.8651478567        8.5536729402       22.2273702322
  H         7.3476706549       10.2267653425       21.7995814346
  H        20.7320463158        4.6860162015        5.6939233052
  H        20.8887389581        6.2592353932        6.2703468304
  H        20.3325795819        4.9159886769        7.3003600223
  H         3.2354035555       10.1044673254        0.9982483997
  H         3.1666668359        8.3724634800        0.5527129028
  H         2.3219899643        8.9797337498        1.9828017428
  C        14.1562973508        0.3142284224       -5.9276975557
  N        13.8336353007       -1.0029740560       -6.0726007457
  O        12.8227992688       -2.5910494801       -4.7311518261
  S        14.6565116329        1.2113083379       -7.3014817658
  C        13.9421854292       -1.7608183602       -7.3789913484
  H        14.1995769653       -2.7913518568       -7.2372775438
  H        14.7690570973       -1.3669744662       -7.9298782571
  C        12.6034183453       -1.7456516196       -8.0887310279
  H        11.8112147781       -2.3455838112       -7.5359077596
  H        12.6975729643       -2.2643531467       -8.9936379962
  H        12.2599800607       -0.7200828942       -8.1855050017
  H        -2.9062053997       14.9346324400       16.5636974742
  C        -3.3350724240       14.0132141464       16.8411994131
  H        -4.2189829749       14.2049535070       17.4456614337
  C        -2.1588789562       13.3309772286       17.5728258533
  C        -3.6695567950       13.4139333353       15.4459186607
  C        -1.9523494789       13.8269248394       19.0349870193
  H        -2.2946410142       12.2781395502       17.5752409315
  H        -1.2243543601       13.5395339670       17.0274288143
  H        -3.5306501321       12.3596105772       15.3154833879
  H        -4.6338116071       13.7760976850       15.1751288310
  H        -3.0543478881       13.8435383007       14.6662577272
  C        -3.0051076085       13.1890454473       19.9242961539
  H        -2.0487475302       14.9225387040       19.0598229933
  H        -0.9271756330       13.6700824762       19.3309360534
  C        -2.9365148090       13.6172759585       21.4575200935
  H        -4.0594987348       13.2272230322       19.5377348228
  H        -2.8964004758       12.1290406994       19.8274763810
  C        -1.6921623913       13.0132352497       22.1230679196
  H        -3.8315032264       13.3508125166       21.9826132402
  H        -2.8898632729       14.7034185759       21.4919271784
  C        -0.5729738442       13.9790724256       22.5651850003
  H        -2.0410476880       12.4710827685       22.9787662590
  H        -1.2356892456       12.2152573068       21.4875722686
  C         0.6430821292       13.2561790149       23.3049519247
  H        -0.2832011675       14.5489126664       21.7119477114
  H        -0.9125955028       14.7042098458       23.2971822650
  C         1.0742135409       11.9758401909       22.6152312657
  C         0.1833618607       12.4757130567       24.5306661537
  C         1.9028369189       14.0398263960       23.5020589773
  C         0.7966130159       10.8349348340       23.3259670181
  C         1.5553310547       11.6820039291       21.3387171462
  C         0.3084283178       11.0800233277       24.5573199541
  C        -0.1749513582       12.9615478688       25.7440953720
  H         2.1971149059       14.4312559674       22.5378201958
  H         1.6707232027       14.9202520560       24.0950543879
  C         3.1097046181       13.1712822912       23.9805378463
  S         1.1340003556        9.3721357435       22.5056894668
  C         1.6982643015       10.3064490453       21.1872109909
  H         1.7348396522       12.3750946039       20.5598686046
  C        -0.0240376922       10.3107656910       25.6215753165
  H        -0.1743055696       14.0428481515       25.8573353274
  C        -0.4538443243       12.1829654354       26.8486018517
  H         3.4047625658       12.4234482451       23.2615111805
  H         2.7348643746       12.5544908956       24.8434408678
  C         4.2847716606       14.0260189459       24.4071785371
  C         2.3015929901        9.6044175541       19.9689646889
  C        -0.3664831842       10.8811318175       26.8228096868
  H         0.0571400348        9.2603963936       25.5352177589
  C        -0.8701848408       12.4898696424       28.1072965451
  H         5.0352423845       13.5123287338       25.0002563868
  H         3.9785316560       14.8130064277       25.0247471042
  C         5.0771287614       14.6567921562       23.2381068271
  C         2.4758510417        8.1951601909       19.7866751007
  C         2.5657593013       10.3937771249       18.7372683815
  C        -0.8403963620       10.1058904294       28.0618897875
  C        -1.1995626577       11.3538367798       28.8944548128
  S        -1.1414159109       13.9493223171       28.9991397238
  H         5.8015941386       15.3233220712       23.7065652434
  H         4.4146404215       15.3521264511       22.7111833614
  C         5.6721254845       13.6957773206       22.1571553267
  N         2.3824731429        7.2695374218       20.8017918552
  C         2.7253622639        7.6406385917       18.5628292695
  C         2.8180450538        9.8955376226       17.5104789791
  H         2.5617606056       11.4077156660       18.8739094311
  C         0.3037699656        9.2684136270       28.7152596566
  C        -2.1342337820        9.2666918437       27.8359712319
  C        -1.6582340301       11.7181236678       30.2136459720
  C        -1.7626003873       13.0743195379       30.3287957506
  H         6.7361058728       13.9282515254       22.1001810223
  H         5.6443106525       12.5667092830       22.3445487746
  C         4.8725615807       13.8602271012       20.8250557454
  S         2.4202176465        5.7645940821       20.1086507872
  N         2.6652161020        6.2733406610       18.5651016686
  C         2.8426674441        8.3996257381       17.3157435202
  H         2.9936432794       10.5909007211       16.6817144854
  H         0.4916016050        8.3694960018       28.1422183466
  H        -0.0344921525        8.9743938500       29.6965443482
  C         1.5966795386       10.1058991880       29.0219784720
  H        -2.0177184197        8.4207267340       27.2287160649
  H        -2.5506776396        8.8044198703       28.6731623265
  C        -3.3204703797       10.0620618753       27.3136601272
  H        -1.8996296754       10.9595087186       30.9564374092
  C        -2.0185903235       13.7958102700       31.6390759249
  H         5.0804952697       14.7692677786       20.3647490516
  H         3.7811190623       13.8477924878       21.0371396104
  C         5.2864837813       12.7610854589       19.7695312879
  C         3.2049891872        7.6671637751       16.1313085794
  H         2.0736978456       10.5550153701       28.1372484338
  H         1.3295160038       10.8910736215       29.6752083643
  C         2.5774545837        9.2688561425       29.8339295507
  H        -3.1062370158       10.5399966437       26.3385819425
  H        -3.6367187952       10.8022496864       28.0932877828
  C        -4.4939232029        9.2573954998       26.9983043461
  C        -2.1638666324       15.1715536099       31.8558888487
  C        -2.0465236998       12.9926129388       32.9373385296
  H         5.3016448384       11.7407244418       20.1765563768
  H         4.5076447498       12.6982365081       19.0240420357
  C         6.5767102935       13.0206279282       19.0713449671
  H         2.9020890188        6.6680420723       16.1550449157
  C         3.5529836531        8.1624574762       14.8997993759
  H         2.7563103180        8.3813426644       29.2898279682
  H         2.1040489183        9.0295309180       30.8163009976
  C         3.9423915980        9.8031610465       30.1344252547
  H        -4.3516091467        8.4817043945       26.2760228004
  H        -4.6954416035        8.7046757763       27.8713604327
  C        -5.6249906054       10.2012543096       26.6847665110
  N        -1.9675076060       16.0493357622       30.8330081241
  C        -2.2456693898       15.7879377502       33.1225300915
  C        -2.2552741506       13.6157901561       34.1561009508
  H        -1.9090364212       11.8693818758       32.9477895335
  H         7.0275032168       14.0424034228       19.2133808513
  H         7.2945172558       12.3036120569       19.4565465519
  H         6.4639129833       12.7162130295       18.0407631510
  S         3.9916955118        9.8562948998       14.4627331804
  C         3.6974766327        7.1463588584       13.7622882998
  H         4.4612397521        9.8407669143       29.1383040401
  H         3.8697140680       10.7295427188       30.5858593433
  C         4.6974211326        8.7285511135       30.9763039456
  H        -5.4174394749       11.1764214182       26.2035623768
  H        -5.9386401807       10.6086819561       27.6498094794
  C        -6.8749598943        9.5296393231       26.1793239748
  S        -1.9597815048       17.5396609469       31.4713871126
  N        -2.2768992146       17.1350508785       32.9906725635
  C        -2.3660977486       15.0983472303       34.3092228560
  H        -2.4014358514       13.0009918694       35.0528738505
  C         4.2140905408        9.1836976458       12.8188163511
  N         4.0275442720        7.8143684101       12.6611481449
  O         3.4936821733        5.9255258046       13.9119434963
  H         4.2235089374        8.6161592158       31.9639326150
  H         5.6790842948        9.1147104972       31.1826566710
  C         4.9309258997        7.3565610796       30.3576074024
  H        -6.6181952283        8.6358957172       25.5653183144
  H        -7.3749271551        9.1451148561       27.0382610131
  C        -7.8292459896       10.6104000081       25.5484253080
  C        -2.5084794102       15.8253277674       35.5259186568
  S         4.5685068797       10.2412882279       11.4629209516
  C         4.1155605765        7.0779973837       11.3823447552
  H         3.9635391808        6.7756744344       30.3282881560
  H         5.3572623858        7.5774624643       29.3716167514
  C         5.7114963946        6.3574990396       31.1520102952
  H        -7.3815004164       10.9422686206       24.5785631387
  H        -7.7922540628       11.5361755416       26.1411260057
  C        -9.1981413996       10.2241262946       25.3479392862
  H        -2.4776123796       16.8978417427       35.4195722453
  C        -2.9918622539       15.3504283493       36.7047337759
  H         4.9040112877        7.5958937075       10.8511315767
  H         4.5243734193        6.1007977581       11.5723037570
  C         2.8804138067        7.0340694595       10.4442927438
  H         5.2810687452        5.2843081088       31.2234782002
  H         5.7433935101        6.6919680757       32.1948865222
  C         7.1178585851        6.2666287508       30.6488593964
  H        -9.6156604568       10.6184744713       24.4333517348
  H        -9.1838477552        9.1351738825       25.2437583379
  C       -10.1028309941       10.4080188909       26.6094081043
  S        -3.5138357718       13.7605320617       37.1636428213
  C        -3.0660695058       16.3700125712       37.7611180597
  H         2.2060069094        7.8617164431       10.6649691732
  H         3.2647204235        7.1168013525        9.4152420114
  H         2.3211158327        6.0939640335       10.5651217192
  H         7.6639600303        7.2597753705       30.7971971941
  H         7.2256164972        6.0353263335       29.5479915929
  H         7.5978669375        5.6054001461       31.2948750747
  H       -10.4396211142       11.4469372483       26.6699181678
  H        -9.5870308136       10.1514479336       27.4995191012
  H       -10.9266768733        9.7288516451       26.6116191963
  C        -3.8816880996       14.5056046830       38.7093196035
  N        -3.7210791666       15.8243393099       38.8150393967
  O        -2.7496795634       17.5603805630       37.6515620146
  S        -4.6205887855       13.6048894511       40.0609572733
  C        -4.0142736135       16.5866276134       39.9950034178
  H        -4.1146763386       17.5901657476       39.6948386626
  H        -4.8860192101       16.3685304056       40.6939257374
  C        -2.8466210025       16.4378651322       40.9470657656
  H        -2.0237317936       16.9199402839       40.4375739060
  H        -2.8303472861       16.9978192024       41.8850278190
  H        -2.4429297967       15.4229362375       41.0351092824
