352
i=
  H         2.6886160854        3.4663723623       13.0286250418
  C         3.1450033315        2.5616535282       12.7337924064
  H         2.7144040260        1.8291925237       13.4147399557
  C         2.6370928446        2.2153927221       11.3592073057
  C         4.6855049379        2.7180405095       12.9380564155
  C         3.6284067289        2.5341432555       10.1414842083
  H         1.6194929922        2.5344954740       11.1251907981
  H         2.5509044368        1.1230431459       11.3468403124
  H         4.8404801566        3.1872565027       13.8887136936
  H         5.1032876292        3.3536691513       12.1748573682
  H         5.1542870831        1.6597269944       12.9898764456
  C         4.5447834755        1.3876091423        9.7455108561
  H         3.0444389549        2.6776376931        9.2378516127
  H         4.1225147108        3.4317623098       10.2968263286
  C         5.3597242170        1.7747695410        8.4950216787
  H         3.9050004531        0.5343403010        9.6229333528
  H         5.3851269485        1.1401255050       10.4517059613
  C         6.6300316149        2.6613724922        8.6043742391
  H         4.6982501171        2.3674470809        7.7963212780
  H         5.5370022465        0.8926134503        7.8979245451
  C         7.9253749870        1.9525715809        9.0833138115
  H         6.7047284198        3.0507359120        7.6325380284
  H         6.3074990462        3.4923976374        9.2005638641
  C         9.1289802594        2.7910265537        9.3703466550
  H         8.1529396796        1.2013602744        8.3340562056
  H         7.6593215344        1.5641792307       10.0748814175
  C         8.8988014934        4.0513901090       10.1189918235
  C         9.6083071744        3.4305049378        8.1359785764
  C        10.2867338166        1.9918919552        9.9436081707
  C         9.0911420854        5.1420278309        9.3051343914
  C         8.3726685739        4.4383555526       11.3813899768
  C         9.6021843159        4.7781178365        8.0737167613
  C        10.0571918747        2.8679225184        6.9643101979
  H         9.9491120568        1.4562181009       10.8762890592
  H        10.5169584714        1.0984875446        9.3210184633
  C        11.5790512657        2.7400032471       10.2170144185
  S         8.6904357860        6.6288538882       10.0394517590
  C         8.1612756786        5.7816126787       11.4646055772
  H         8.0697957148        3.7459079524       12.1327038601
  C        10.0797774402        5.4245040001        6.9505849770
  H        10.0723424555        1.8195332665        6.9690157998
  C        10.4949767931        3.4857827940        5.8314837527
  H        11.3818520325        3.7513129562       10.5663006371
  H        12.2476451244        2.7779295606        9.3241589088
  C        12.4808111083        2.1861786960       11.4147373765
  C         7.6848582295        6.4873362068       12.7641695808
  C        10.5309137026        4.8336621847        5.7575738301
  H        10.1991981132        6.4630692039        7.0180629121
  C        10.9463734201        3.1391596614        4.5659293458
  H        13.3309406219        2.8084467484       11.4961950221
  H        12.6983716283        1.1014692484       11.1866007259
  C        11.7892559390        2.2714021588       12.8640212929
  C         7.6043503868        7.8737890166       13.0062367816
  C         7.1627616042        5.6001483464       13.8559483453
  C        11.0016549266        5.5703730307        4.5147833118
  C        11.3333083891        4.2058423560        3.8028679149
  S        11.2014459668        1.6964367713        3.7139921868
  H        11.0655531946        3.1560728712       12.9385120645
  H        11.1621075230        1.4243225840       13.0364009057
  C        12.8066059200        2.0883851120       14.0451242605
  N         7.9776185818        8.8426461899       12.1189140605
  C         7.3054082184        8.4110913595       14.2412299098
  C         6.9065129506        6.1855542616       15.1241160887
  H         7.1422773042        4.5288368080       13.7300319218
  C        12.2828758436        6.4079920696        4.8202360550
  C         9.8194493320        6.3466934065        3.7982474936
  C        11.8122360664        3.8557118332        2.5144823685
  C        11.7238835398        2.4759718142        2.3139620368
  H        13.7194077437        2.6587194883       13.8241471459
  H        13.1111160034        1.0550518440       13.9571972032
  C        12.2344011482        2.4609837994       15.4293241225
  S         7.8564004426       10.3441502545       12.7882651944
  N         7.5005206421        9.8276457673       14.2873755627
  C         6.9849681212        7.6401505346       15.3777538820
  H         6.5225647783        5.6285023922       15.9298800069
  H        12.0270691046        7.1398215149        5.5419655044
  H        12.5464922666        6.8286850502        3.8579062955
  C        13.4160804740        5.5560632289        5.3999679617
  H         9.4330722827        7.0156877529        4.5772179538
  H        10.0978928246        6.9194307310        2.8978304541
  C         8.6449167924        5.4420964899        3.5180009821
  H        11.9772134478        4.6424467336        1.8317329349
  C        12.0248167853        1.8189212137        0.9887712429
  H        12.0831480961        3.5488653964       15.4627226482
  H        11.2608724626        2.0011503413       15.5937992464
  C        13.2102780504        2.0875884999       16.5187882873
  C         6.8946551377        8.3381407410       16.6255589991
  H        12.9867440743        5.1752375697        6.3736077976
  H        13.5141567905        4.7399982022        4.7492993054
  C        14.7432053551        6.2469118687        5.6797438136
  H         8.1792277711        4.9575669375        4.3909137828
  H         9.0023268209        4.6472976486        2.8679907779
  C         7.6295962130        6.2460134191        2.7095446382
  C        12.0654730802        0.4021586849        0.7422316254
  C        12.2815375286        2.6522045371       -0.1958198897
  H        14.0977551010        2.7206140265       16.3995264541
  H        13.6289278973        1.0603932338       16.4916183105
  C        12.6810071400        2.3059360404       17.9801314839
  H         6.9001929825        9.3609177391       16.5290150450
  C         6.5797734885        7.9327972390       17.9132846300
  H        14.5484703505        7.0778932125        6.2843846525
  H        15.1073431876        6.7110680661        4.7936736002
  C        15.7294369340        5.3251779876        6.2359198725
  H         7.3135464165        7.0682947256        3.3794469318
  H         8.0030067184        6.7852728872        1.8501340018
  C         6.3659143868        5.3650130066        2.5219072065
  N        11.8049192649       -0.6087097838        1.7324044200
  C        12.3932561113       -0.1986999506       -0.4660764204
  C        12.4941285660        2.0100481685       -1.4397613556
  H        12.3048844505        3.7208424464       -0.0592254541
  H        11.6948664991        1.7411742656       18.0652754599
  H        12.5840681753        3.3352109545       18.2393207052
  H        13.4430235591        1.9172876536       18.7536349379
  S         6.2892906149        6.3320474927       18.4814887007
  C         6.5778526000        9.0026735043       18.9427915038
  H        15.1981612146        4.7854791844        7.0224694148
  H        16.1348646089        4.6862379413        5.4898418401
  C        16.8144414160        6.1174861598        6.9098681925
  H         5.7192773016        5.3369159401        3.3968424769
  H         6.6809278329        4.3214268175        2.4176936217
  C         5.4745000275        5.8578892255        1.4081280171
  S        11.9330860771       -2.0463667503        1.0198247820
  N        12.5073678986       -1.5788018762       -0.4088999631
  C        12.6365777659        0.5684754720       -1.5900290814
  H        12.7063175213        2.6675006564       -2.2953692063
  C         5.9975289580        7.1040920532       20.0350033638
  N         6.2239652433        8.4268672632       20.1299164874
  O         6.6024422379       10.2268354588       18.6463689820
  H        17.3479222548        6.7786517731        6.2146122364
  H        16.3340472309        6.7574045493        7.6673285603
  C        17.7710679905        5.2095595481        7.6211774880
  H         6.1198218656        5.9829163410        0.5221727285
  H         4.6758419035        5.1413744652        1.2654772494
  C         4.8283702305        7.2969029391        1.6829590845
  C        12.9155028115       -0.1455255918       -2.7947215523
  S         5.3613224140        6.3450769807       21.4166675001
  C         6.2208915864        9.2913861452       21.3114391291
  H        17.3251650510        5.0187930291        8.5396684573
  H        17.7691852984        4.3220472036        7.0294702525
  C        19.2086524741        5.6148114881        7.6935055854
  H         5.2130806920        7.9449144051        2.5125191003
  H         3.7911005928        7.1493383215        1.9185217866
  C         4.6995744407        8.0740296525        0.3636706230
  H        12.6135125254       -1.1959598431       -2.8575411603
  C        13.5446851740        0.0255217450       -3.9675749120
  H         5.6303990830        8.8530982122       22.0752604838
  H         5.6935482311       10.2427117681       21.0870296002
  C         7.6022725512        9.5670153333       21.8240401048
  H        19.6247465416        5.0380754390        8.4792508850
  H        19.3005249718        6.6419984738        8.0335195002
  C        19.8553476144        5.4052533009        6.3899455347
  H         5.6921185069        7.9235116811       -0.1391626492
  H         3.8956261021        7.6980204657       -0.2180694724
  C         4.4168254868        9.5676995104        0.5160795222
  S        14.2887760370        1.4977634631       -4.3475713504
  C        13.6059102112       -1.0329306449       -5.0144929174
  H         7.8509000090        8.7927870769       22.5069240864
  H         7.5152707017       10.4758614987       22.4456100301
  H         8.4096422032        9.5847561237       21.0649747156
  H        19.1180863549        5.7943846476        5.6021679743
  H        20.7238298196        5.9940607728        6.4306930065
  H        20.0450281788        4.3636193070        6.1256582837
  H         5.2245026541       10.0417614240        1.0634216404
  H         4.3832795885       10.1538259538       -0.4518968259
  H         3.4634886322        9.9055830352        0.9846908830
  C        14.3588798235        0.8632890454       -6.0337726036
  N        14.1328806939       -0.4844237221       -6.1164550378
  O        13.2679628879       -2.1987903613       -4.8775332521
  S        14.6439094702        1.8092462094       -7.5084629550
  C        14.2162299584       -1.3157292044       -7.2981381663
  H        14.6034163140       -2.2616422902       -7.0168383980
  H        15.0015290249       -0.8917380776       -7.8591635028
  C        12.8346164302       -1.3319257496       -8.0888391745
  H        13.0339747589       -1.4161695190       -9.1920049266
  H        12.3332159325       -0.4093524539       -7.8756613152
  H        12.1867885419       -2.0960695841       -7.6602864279
  H        -1.2501060950       14.8591491641       17.1521634810
  C        -2.2768838233       14.7879562382       16.8212010071
  H        -2.6119663521       15.8209091712       16.8210878355
  C        -3.0896921605       14.1092126956       17.8784218614
  C        -2.2931308132       14.1748885495       15.4126404699
  C        -2.2504485777       13.0230381217       18.4943373050
  H        -3.3822076218       14.7830854542       18.6463590243
  H        -4.0293058451       13.7284011564       17.3966371157
  H        -1.7262664041       13.2558723902       15.5030230835
  H        -3.3450258239       13.8479938278       15.1940023644
  H        -1.8385226202       14.8535694248       14.6896057232
  C        -1.4807710747       13.4652437422       19.7355313135
  H        -1.5301620237       12.6796651875       17.7856257567
  H        -2.8315764660       12.1959789960       18.7116170012
  C        -2.2465585520       13.2808577694       21.0530093001
  H        -0.5383103665       12.9670064569       19.7062956871
  H        -1.2587782458       14.5228990205       19.6088066881
  C        -1.3406015482       12.8595917657       22.2100209266
  H        -2.9958837603       12.5551655490       20.8243416218
  H        -2.7859822191       14.1264329798       21.2955149259
  C        -0.1911488909       13.8149987882       22.4796690778
  H        -1.8582843159       12.8864417147       23.1504866565
  H        -1.0884726627       11.8298597583       22.1341547306
  C         0.9977788675       13.1868438786       23.2016258734
  H         0.1391497519       14.2322314948       21.5720890353
  H        -0.5551519354       14.5891028297       23.1390367145
  C         1.4735001945       11.9532718750       22.5442155751
  C         0.5641902522       12.5369184321       24.4569634806
  C         2.1163246974       14.1895804350       23.4428942399
  C         1.2704204143       10.8624098364       23.3554850881
  C         2.1499831060       11.5714189857       21.3780544507
  C         0.8261445346       11.2007653817       24.6235915568
  C         0.1340624779       13.1284194451       25.6436205747
  H         2.4678002394       14.7393837729       22.5275028332
  H         1.7746554402       15.0193609773       24.1181765792
  C         3.5071950299       13.6661849782       23.8737549571
  S         1.7382312724        9.3811877329       22.6599466016
  C         2.2567589535       10.2244324795       21.2527049269
  H         2.5728926754       12.3361558852       20.6499193088
  C         0.5489843379       10.5729180595       25.8097649812
  H         0.1616814685       14.2124299595       25.6468327409
  C        -0.1617306626       12.4754162959       26.8137874690
  H         3.9265390339       13.0735594859       23.1125131405
  H         3.4921705404       13.0199433319       24.7522754954
  C         4.5260123263       14.6745217207       24.2694068279
  C         2.7584519934        9.4621774896       20.0197631914
  C         0.0401081945       11.1396283829       26.9608636642
  H         0.5966952627        9.4879422797       25.8854756845
  C        -0.5671472507       12.8476036870       28.0719813239
  H         5.2281527300       14.1826542248       24.8940381087
  H         4.1125391936       15.4323461716       24.8486209366
  C         5.2164211703       15.2669276571       23.0972712364
  C         2.6477297454        8.0477871121       19.8176976385
  C         3.0824460486       10.2369428301       18.8337890720
  C        -0.3183149543       10.4544412496       28.2507471972
  C        -0.7145350899       11.7740605316       28.8996456396
  S        -0.9673717314       14.3152877098       28.8974815281
  H         5.8253770936       16.1157300295       23.3884929650
  H         4.5407812990       15.6931582441       22.3096872206
  C         6.2025618553       14.2781563491       22.5916657078
  N         2.1563301918        7.0902791649       20.7518485331
  C         2.9872910136        7.4255495312       18.5965691186
  C         3.4770844379        9.5616111206       17.6968064735
  H         3.0994789491       11.3490052722       18.8550766667
  C         0.9123747338        9.8439278612       29.0078062336
  C        -1.5695945338        9.5096744627       28.1774527980
  C        -1.1647480709       12.1289885193       30.1771986052
  C        -1.2879241483       13.4841406278       30.2940683196
  H         7.1342520493       14.8544409235       22.6871412129
  H         6.3250139268       13.3288559376       23.2159723593
  C         5.8758955245       13.9768543223       21.1585480652
  S         2.3577551222        5.6191937532       20.1166458795
  N         2.8015659772        6.0469927149       18.6260950237
  C         3.3343896891        8.1261190022       17.4309368780
  H         3.8978141189       10.2697294742       16.9695589061
  H         1.5362668260        9.2817454171       28.2616999292
  H         0.5628474608        9.1009020973       29.8306246338
  C         1.9041144263       10.8765347020       29.6029284328
  H        -1.3624422639        8.9598615625       27.3137810981
  H        -1.7265748182        9.0565674656       29.1816056744
  C        -2.9476758359       10.2492377877       27.9004061943
  H        -1.1381409855       11.3312827892       30.9810169974
  C        -1.6076602963       14.2153639699       31.5399957585
  H         5.4146999408       14.8873924918       20.6648576884
  H         5.2012506668       13.2173975602       21.2587701547
  C         7.2118598239       13.6771433467       20.3311606195
  C         3.6031091296        7.4586209011       16.1927771140
  H         2.2505627918       11.5059855413       28.8398332235
  H         1.4083054827       11.3669078616       30.4476117879
  C         3.1215607728       10.1270665279       30.1950505267
  H        -2.7665597991       10.9806777382       27.1661328198
  H        -3.3515982299       10.7836627915       28.8096951385
  C        -3.9265156485        9.2696622922       27.3349948527
  C        -1.6648396664       15.6186266659       31.6601197395
  C        -1.7121211357       13.4270738214       32.7704921840
  H         8.0263271419       14.3202990490       20.5949406286
  H         7.5382000047       12.7258335279       20.6117224216
  C         6.9284568576       13.5617539494       18.8741765536
  H         3.5840767987        6.3865018315       16.2571803570
  C         3.7563053910        7.8267112644       14.8972647345
  H         3.5393365845        9.5310670087       29.3761291905
  H         2.8892317062        9.3989077608       30.9995511082
  C         4.1730855159       11.0159271598       30.6181737464
  H        -3.3783082487        9.1629112986       26.3658792843
  H        -3.9672787125        8.3084044671       27.9147047301
  C        -5.3137618569        9.8638570397       27.1178682815
  N        -1.5077912073       16.6179477046       30.6756091370
  C        -1.8746047896       16.2044256093       32.9056419553
  C        -2.1307785131       14.0058520335       34.0051176854
  H        -1.6842898593       12.3755293582       32.7594381271
  H         7.0363090214       12.5320806343       18.5469618311
  H         6.0065981002       13.9773695493       18.3954429833
  H         7.7175921945       14.3213585225       18.4704782970
  S         4.0550639625        9.3959588585       14.2375626960
  C         3.5610699050        6.7486539274       13.8758060511
  H         4.2938123041       11.9512994764       30.0870147613
  H         3.9592673476       11.1664222187       31.6877708405
  C         5.5967891771       10.3895277913       30.4639635175
  H        -5.2782431662       10.9517240828       27.1725724328
  H        -5.8996947710        9.6147433441       28.0289835121
  C        -6.0143880727        9.4689498053       25.8429257596
  S        -1.7246149262       18.0637046863       31.3765403581
  N        -1.9513520431       17.5651437840       32.8512701843
  C        -2.1389075379       15.4798175791       34.0810180322
  H        -2.1763685560       13.3712958116       34.8540317346
  C         3.9491522708        8.5913776745       12.6450854904
  N         3.7270412227        7.2458293235       12.6610436208
  O         3.3770116337        5.5395889773       14.1206361108
  H         6.2618403049       11.1238961602       31.0900668048
  H         5.9904733805       10.5682271001       29.4833241543
  C         5.7187169554        8.9205283253       31.0182838791
  H        -5.3101460133        9.1174083497       25.0552585052
  H        -6.5460854638        8.6439897382       26.1025403168
  C        -6.9098943407       10.5495431900       25.2196861702
  C        -2.4017507623       16.2880123775       35.2836068628
  S         4.4884014611        9.3929825574       11.1234849893
  C         3.5228977869        6.4115178839       11.4360840015
  H         6.1666292718        8.9998074554       31.9896032838
  H         4.8087280521        8.3510465875       31.1776397658
  C         6.6038553932        8.0384808398       30.1729506350
  H        -6.4621041658       10.9220981397       24.3448465833
  H        -6.9543351460       11.4112514911       25.8494004243
  C        -8.2315485826        9.9697745577       24.7495363393
  H        -1.9401910412       17.2671521775       35.3022171510
  C        -3.0102086283       15.7843789833       36.4472812384
  H         4.2421292252        6.6908316791       10.6748312181
  H         3.7497265856        5.4595343222       11.5306587111
  C         2.0317738698        6.5836629892       11.0752524198
  H         7.2202455352        7.4724403994       30.8947636174
  H         7.4112130665        8.5978955649       29.6215053768
  C         5.8819907578        6.9979696273       29.3856252910
  H        -8.5960658879       10.6677543030       24.0166640049
  H        -8.2815927930        8.9665688753       24.2598461855
  C        -9.2052599568        9.9140786856       25.9466193749
  S        -3.7681181025       14.2481154882       36.8129600489
  C        -2.9867725649       16.8424791592       37.5114499965
  H         1.3786107298        6.2860340197       11.9185663272
  H         1.7251687718        7.4718632440       10.6653831930
  H         1.9326863613        5.8496903992       10.3106169774
  H         5.0713741161        7.4630066375       28.8480445733
  H         5.3938740256        6.2254074715       29.9704040683
  H         6.5814655702        6.6106650312       28.6950006074
  H        -8.8717929614       10.6028156516       26.7730871690
  H        -9.2626946766        8.9199953287       26.2540864432
  H       -10.2341494479       10.1744715277       25.6608437328
  C        -3.9213744902       14.9289663710       38.4471067428
  N        -3.5687798066       16.2418811579       38.5672428193
  O        -2.6938906135       18.0696520209       37.3581573351
  S        -4.7542420817       14.0082990824       39.7221856611
  C        -3.7849378013       16.9643927598       39.7691212378
  H        -3.6260064222       18.0436680887       39.6706720499
  H        -4.8492053039       16.9586799964       40.0931550846
  C        -2.7473552088       16.6162439637       40.8013031372
  H        -2.9917246765       15.7424565048       41.3443941097
  H        -1.7791553896       16.3680938387       40.2975080559
  H        -2.4905859657       17.4263234720       41.3304668951
