352
i=
  H         3.0383747017        0.5354735490       13.5596087834
  C         3.7989748508        1.3530749790       13.3088922974
  H         4.6907116223        0.8792636377       12.9371258164
  C         3.1574063748        2.1030945753       12.1971387006
  C         4.2522960146        2.3297621357       14.4589741756
  C         4.1722828948        2.3373380051       11.0605992977
  H         2.6162197358        3.0404390057       12.4666374332
  H         2.3984786374        1.4399689076       11.9030901607
  H         4.9556211693        1.8157162789       15.1060727959
  H         3.4155316495        2.6045545730       15.0557397569
  H         4.6539642257        3.3418747219       14.1606526979
  C         4.7276229218        1.1590462206       10.2444276005
  H         3.6444748468        2.9633801439       10.3613328050
  H         5.0363521340        2.9248787326       11.5318988882
  C         5.3778685547        1.4383524447        8.8623107497
  H         3.9826884165        0.3865082831       10.1087497858
  H         5.4470811882        0.6780711967       10.8963387050
  C         6.5666349132        2.3856376440        8.9553869958
  H         4.5746397553        1.8330877435        8.3018853058
  H         5.7031822074        0.5163827647        8.3172237150
  C         7.8654169859        1.5603594196        9.1904255893
  H         6.7941614635        2.9288864351        8.0666294574
  H         6.4933996254        3.0469323376        9.7936232624
  C         9.2221081774        2.3494538503        9.2281636009
  H         7.8647190334        0.7337335848        8.5305753513
  H         7.7831030716        0.9779463812       10.1112468878
  C         8.8880403689        3.6818485417        9.9811531386
  C         9.4370303319        3.1016191137        7.9299472218
  C        10.4981712297        1.7354489385        9.8781780440
  C         8.9199654090        4.7944744552        9.1379113570
  C         8.5511222361        3.9401020688       11.2740892328
  C         9.3149624798        4.4822643512        7.8692838451
  C         9.8516804564        2.5104629576        6.6942083387
  H        10.1649737051        1.3425887712       10.8641082825
  H        10.8550285891        0.8997288568        9.3247517857
  C        11.6766958718        2.7332386536        9.9860901854
  S         8.6062750807        6.2466307719       10.0456861986
  C         8.4042111956        5.2782217378       11.4669369847
  H         8.4001405555        3.1368135800       11.9854346402
  C         9.6217137943        5.1914646632        6.7182083918
  H         9.9905679283        1.4564845816        6.6111757631
  C        10.1842246221        3.2186741321        5.5724358939
  H        11.3306231460        3.6661230553       10.3212569170
  H        12.0402791572        2.9612218071        8.9883427470
  C        12.7113233255        2.2366947815       10.9588447878
  C         7.8548101455        5.9609167364       12.6727001027
  C        10.1042766722        4.5895042974        5.5325718922
  H         9.5150095408        6.2847401018        6.7484312376
  C        10.6713123778        2.8979150495        4.3212677890
  H        13.4975566145        3.0214732177       10.9185892336
  H        13.2554858812        1.4039743257       10.5530629285
  C        12.1985091667        1.8194038678       12.3646374919
  C         7.7704050468        7.3285192864       12.8729880787
  C         7.4040976313        5.0249044952       13.7895623536
  C        10.4048613414        5.2811856501        4.2798865261
  C        10.8568707632        4.0403293450        3.5341994154
  S        11.1091702132        1.4284414311        3.5558635210
  H        11.5446447084        2.5477957849       12.7460615296
  H        11.7229230462        0.8016646316       12.3045578095
  C        13.3822607662        1.6421392209       13.2877854888
  N         8.0803098823        8.3124641759       11.9345203684
  C         7.4090374262        7.8791585825       14.0902995580
  C         7.0248601540        5.6192169091       14.9985941829
  H         7.3012126006        3.9490662566       13.6732495677
  C        11.6408816185        6.2020245162        4.6093140098
  C         9.2727663887        6.0168712729        3.4723300730
  C        11.1368396024        3.7131289959        2.1884029707
  C        11.3362843222        2.3574869103        2.0101869846
  H        13.8176707395        2.5725520485       13.4575686808
  H        14.1341233210        1.0307222425       12.7749753066
  C        12.9574392614        1.0732072931       14.5814806609
  S         7.9928612873        9.7105254589       12.6947247251
  N         7.4743635833        9.2585926304       14.1389539137
  C         7.0235873684        7.1321445704       15.2256627480
  H         6.8245410557        5.0012177592       15.8387534476
  H        11.5289806358        6.7152892330        5.5588653325
  H        11.7783616563        7.0720301829        3.9359799444
  C        12.9288620555        5.4375184007        4.8900049110
  H         8.9407639999        6.8530557231        4.0464865545
  H         9.5766945873        6.5058878773        2.4951728582
  C         7.9390451196        5.1051317560        3.3695874621
  H        11.3370837323        4.4964582628        1.4421707282
  C        11.8184246192        1.6666603058        0.7733120889
  H        12.1237379970        0.3604094184       14.5194832515
  H        13.7319637852        0.4346662333       15.0884015165
  C        12.7918480420        2.1890011655       15.6398945788
  C         6.9195176649        7.8270051930       16.4895369201
  H        12.7427430522        4.5921948030        5.5920305741
  H        13.2835745485        4.9926055562        3.9516354076
  C        14.0219031050        6.3702271564        5.4873212003
  H         7.4074441883        5.0188924489        4.3106742150
  H         8.3049491909        4.1524255498        3.1108405911
  C         7.0242928721        5.6385412978        2.2296757737
  C        11.8929399194        0.2803200454        0.5417689687
  C        12.0440618053        2.4074342009       -0.4276994238
  H        12.2050028554        2.9276441872       15.1344544855
  H        13.7664554777        2.6716598545       15.9036788446
  C        12.1964882609        1.7505429964       16.9601693871
  H         6.9693780325        8.9287363039       16.3991022741
  C         6.5168766378        7.4005451364       17.7283993755
  H        13.5868771735        7.0414843148        6.1945499878
  H        14.5303189924        6.8953729426        4.7366101715
  C        15.0877823559        5.5675561291        6.2628056777
  H         7.3244282231        6.6664908584        1.9204063328
  H         7.1018252536        5.0225162088        1.3732151967
  C         5.5855272204        5.6469982576        2.6369056660
  N        11.6211263453       -0.6932602202        1.4793314532
  C        12.2987909732       -0.2704370425       -0.6055366573
  C        12.3199736583        1.8416331286       -1.6521549553
  H        11.9262586676        3.4485503147       -0.4726622277
  H        12.4362375765        2.5661708958       17.6812095241
  H        12.8115827408        0.8494514135       17.2241494627
  H        11.0903071067        1.5862875461       16.9857616429
  S         6.1606383181        5.7606423749       18.2912035401
  C         6.3579907285        8.4161267268       18.7440003224
  H        14.9700988991        5.7549668046        7.3596291234
  H        14.7938007878        4.4821975842        6.2003421877
  C        16.4988131489        5.7643716999        5.7301300885
  H         5.5559161053        6.0008886872        3.6835353786
  H         5.1769144032        4.6110096111        2.7048909474
  C         4.5812233626        6.4988344376        1.8768988817
  S        11.9194653001       -2.1269805364        0.9233142639
  N        12.3253003874       -1.6695316259       -0.5522646854
  C        12.5441961041        0.3965576096       -1.7990166088
  H        12.3703195630        2.5501485930       -2.4885130671
  C         5.9361375351        6.5165210553       19.8535596358
  N         5.9770721265        7.8621038057       19.9013109770
  O         6.6387998670        9.6028915663       18.5516529011
  H        16.5028370767        5.0984831931        4.9071734066
  H        16.6872288112        6.7846566389        5.2531668901
  C        17.6679111692        5.3986798592        6.6317384394
  H         4.8033642989        6.2754460528        0.8362571484
  H         3.6209680328        6.0990741494        2.0511238566
  C         4.6048699646        7.9798818409        2.1883150987
  C        12.8391935780       -0.3921346949       -2.9513317850
  S         5.8373797169        5.6145337365       21.3498184298
  C         5.7611404692        8.6419878409       21.1240982510
  H        17.6556386646        6.0538825357        7.4668647621
  H        17.5941466082        4.4371513295        7.0452760740
  C        18.9581478440        5.5513788310        5.8371424575
  H         5.1145290183        8.2315621885        3.1050192499
  H         3.5627774012        8.1711740538        2.5632178972
  C         5.0097576105        8.7976244936        0.9724658672
  H        12.4712822199       -1.3990181253       -2.9981809705
  C        13.4464784950       -0.0442121780       -4.1128103960
  H         5.0587035650        8.1271032592       21.7486545595
  H         5.1915689992        9.5130891582       20.9245401558
  C         7.0519758160        8.9236313948       21.8539699170
  H        18.8512616890        6.3007582332        5.0756425965
  H        19.2367441802        4.6553296124        5.3877911708
  C        20.1573942424        5.9415415218        6.7413753224
  H         5.3120420604        9.8187244720        1.2731841376
  H         5.8906781621        8.4160878675        0.4337918866
  C         3.9242138064        8.9668315539        0.0212595851
  S        14.0072998212        1.5145113210       -4.4422931980
  C        13.5932509701       -1.0182704508       -5.1995292634
  H         7.5534616349        8.0432432275       22.2989840803
  H         7.0235837647        9.6959776095       22.5750164531
  H         7.6962636242        9.3216053696       21.0936389895
  H        20.9720655188        5.2341387640        6.3556386021
  H        20.3399633963        7.0096520875        6.7099615862
  H        19.9381282847        5.7335725944        7.8277176704
  H         3.9510298198        8.1968798786       -0.7284867872
  H         2.9255348753        8.9986014809        0.3416921675
  H         4.0726083192        9.9389993849       -0.5107897641
  C        14.2767455440        0.9168265836       -6.0563496858
  N        14.1674698540       -0.4428316145       -6.2678575656
  O        13.2875037436       -2.2074445501       -5.1226492288
  S        15.1270871623        1.7879491448       -7.3266118519
  C        14.2564928056       -1.2309422784       -7.5174532116
  H        14.2029826353       -2.3280538395       -7.2475684685
  H        15.1851782022       -1.0603350769       -8.1636648180
  C        13.0849942120       -0.8076461192       -8.3924891864
  H        13.3571362202        0.0724404173       -8.9358079739
  H        12.2133122398       -0.5065198834       -7.8343198095
  H        12.7689189061       -1.5835871276       -9.1125075531
  H        -3.4864563023       14.5473490080       16.0569020874
  C        -3.3561794038       13.4875590596       16.3934338173
  H        -4.2654795357       13.1031818922       16.7783655755
  C        -2.3533080025       13.3445379323       17.4716915088
  C        -2.9685756269       12.5118428754       15.2537795202
  C        -2.9210939184       13.6529036192       18.8684232982
  H        -2.0041028583       12.2888093268       17.5248785251
  H        -1.4868373531       13.9205779325       17.4637359956
  H        -2.0904801124       11.8972760370       15.5621459371
  H        -3.8424479629       11.9448285538       14.8563846805
  H        -2.5125599989       13.0903544691       14.4158554851
  C        -1.7533250458       13.7547615275       19.8874379453
  H        -3.6085701477       12.8382775273       19.1683292978
  H        -3.4620531934       14.5695513961       18.7841245373
  C        -2.1552639197       13.5149989911       21.3291626326
  H        -0.9391380043       12.9996763405       19.7390218678
  H        -1.3029110716       14.7151436759       19.7408331728
  C        -1.1575156308       12.6918545291       22.1774811016
  H        -3.0455483811       12.8328428812       21.2690598807
  H        -2.3734367267       14.4511593751       21.8561896301
  C         0.0343404977       13.5900090418       22.6345621065
  H        -1.5469016636       12.1017088399       23.0240162943
  H        -0.8323471439       11.9302721397       21.5491821470
  C         1.0836771391       12.8970889298       23.4549096340
  H         0.4966812389       13.8491061648       21.7058587740
  H        -0.3820500840       14.5411517757       23.0749120817
  C         1.3536189474       11.5291616085       22.8131800175
  C         0.4966575345       12.2706625127       24.6670509692
  C         2.4392408570       13.7188819892       23.6380951052
  C         0.9602899863       10.5220034535       23.6067738989
  C         1.9540972287       11.1937292021       21.6156629983
  C         0.4354331930       10.9047466000       24.7739733291
  C        -0.0927804050       12.8873236049       25.7454391990
  H         2.6978899974       14.0860638818       22.6384430377
  H         2.1250055107       14.5264689592       24.3413409703
  C         3.7648099455       13.0462558854       24.1369305308
  S         1.3477445640        8.9974281132       22.8801642197
  C         1.9008748105        9.7997918776       21.4870926967
  H         2.1266384863       11.9609969524       20.9205890396
  C        -0.0530753640       10.2345191803       25.8618280028
  H        -0.1494972403       13.9975019465       25.7578433367
  C        -0.4810916365       12.3066312398       26.9278805749
  H         4.0322578457       12.2809022452       23.4358073130
  H         3.4270771520       12.6026576403       25.0809144485
  C         4.9717366456       14.0302834445       24.3136201631
  C         2.3379074991        9.0143573565       20.2444205817
  C        -0.5292780156       10.9497261907       26.9386048352
  H         0.0635845505        9.1725946508       25.9094270241
  C        -0.8422336383       12.7847578199       28.1716667593
  H         5.7668169405       13.7036044142       24.9713744352
  H         4.6787814612       14.8806601185       24.8816028873
  C         5.8312699587       14.5877656144       23.0929672662
  C         2.4412729168        7.6309940215       20.0776773529
  C         2.8755074513        9.8012851198       19.1784942871
  C        -0.9194409573       10.3495315063       28.3327805907
  C        -1.0373924405       11.7130420026       28.9962115914
  S        -1.1464338453       14.2796305593       28.8551864308
  H         6.5573282497       15.2066088281       23.6223328185
  H         5.2441523522       15.1080221173       22.3155766048
  C         6.5780977404       13.4676708759       22.2799790474
  N         2.0227294894        6.6695268024       20.9819288941
  C         2.7848971438        7.0556209232       18.8435598273
  C         3.2114782214        9.2320617327       17.9251564975
  H         2.9960218220       10.8253006681       19.3284103156
  C         0.1734782474        9.5134284378       28.9428795864
  C        -2.2683840967        9.6619654864       28.2283286431
  C        -1.4084641593       12.1353860777       30.3139895538
  C        -1.4465094509       13.4798410807       30.4123630884
  H         7.4654658340       13.9557069698       21.8870254828
  H         6.8723827635       12.6277820793       22.8998184679
  C         5.7029464346       12.7770372716       21.2250818057
  S         1.9741245717        5.2509112962       20.2426465298
  N         2.5839927286        5.7207601185       18.8367287066
  C         3.1066592748        7.7449944885       17.6790554039
  H         3.5412813067        9.8739044139       17.1143711520
  H         0.4040761998        8.7765742772       28.1477291329
  H        -0.1148926428        8.9695833283       29.8291716501
  C         1.4945015886       10.1467378117       29.2031969924
  H        -2.2041282178        8.6992336658       27.6684246223
  H        -2.5736880065        9.4594942994       29.2709948130
  C        -3.3179979070       10.5692428432       27.5064808908
  H        -1.5069634938       11.4279376127       31.1083287457
  C        -1.7887054649       14.1820711087       31.7124943726
  H         4.8359531642       13.3015153698       20.8899011112
  H         5.2809597275       11.8417034861       21.6888704578
  C         6.4119272841       12.3300393316       19.9512352601
  C         3.3779244565        7.0809294074       16.4652726345
  H         1.9634097237       10.6372418432       28.2871714002
  H         1.3335921183       10.9202985534       29.9846676127
  C         2.5926445169        9.1171677897       29.5932892685
  H        -2.8883261646       11.1978332531       26.7465253586
  H        -3.6783851683       11.1623111861       28.3553800497
  C        -4.5600457259        9.8096051438       27.0911734329
  C        -1.8001490158       15.5770084748       31.8904366328
  C        -1.9198262489       13.3749928849       32.9607591613
  H         6.9275965482       11.4031090807       20.2163157704
  H         5.7581040129       11.9366683601       19.2694619436
  C         7.2596495882       13.2854469211       19.1909382800
  H         3.3226490686        6.0515192742       16.5619762808
  C         3.7025409420        7.5000409956       15.1883128276
  H         2.6708999439        8.4034602994       28.7462664541
  H         2.2534035775        8.4652267171       30.3870547187
  C         3.9641929666        9.7670172767       29.8874244905
  H        -4.1543134475        9.0236647377       26.4949347780
  H        -5.0284994346        9.4881455433       28.0665689321
  C        -5.5186182802       10.8103136080       26.2677158929
  N        -1.3831397797       16.5239102510       30.9377250240
  C        -2.2630409333       16.1665483519       33.0226893770
  C        -2.2680601971       14.0234111734       34.1557449996
  H        -1.7961327312       12.2916265325       32.9379893875
  H         7.1076149682       14.2900439962       19.4618896795
  H         8.2500470683       13.0502918290       19.3485910032
  H         6.9876021288       13.2201424562       18.1722475688
  S         4.0228169840        9.0815977704       14.5603317711
  C         3.6415191223        6.3914714823       14.1442954135
  H         4.0485586758       10.6864624216       29.2578666545
  H         3.7306029804        9.9654123876       30.9564090191
  C         5.1976140198        8.7464297161       29.7435284676
  H        -4.9435496920       11.2584078517       25.5037842311
  H        -5.9949802375       11.5963367441       26.8787386810
  C        -6.6910184900       10.0380876850       25.5658693307
  S        -1.8485830478       17.9936406621       31.4288185273
  N        -2.3928773138       17.5823749533       32.9218739257
  C        -2.5242922422       15.4558114058       34.2605110898
  H        -2.3635955584       13.3594410937       35.0404804949
  C         4.3589737869        8.2750674268       13.0568094074
  N         4.0843414555        6.9594007244       12.9817608480
  O         3.2644298347        5.2504261595       14.2748309162
  H         6.1094445209        9.1954585905       29.3668239727
  H         4.9447261258        7.9203190446       29.1493417403
  C         5.6666112225        8.1058258159       31.1146941525
  H        -6.2408153359        9.5237333796       24.6940043575
  H        -7.0627729913        9.2359283565       26.2436078102
  C        -7.8940386456       11.0162607186       25.3364644517
  C        -2.8622825749       16.1574067966       35.4296513869
  S         4.7082544791        9.1718739190       11.5920619768
  C         4.0092388103        6.1942318766       11.7275357912
  H         6.4722035851        8.7039897471       31.4042767965
  H         4.9459465539        8.2667828959       31.9231558852
  C         5.9825179463        6.5774492490       31.0812953215
  H        -7.4993190953       11.6744367552       24.5959805766
  H        -8.0295868540       11.6643242952       26.1348239761
  C        -9.0836765828       10.1471753548       24.9301406277
  H        -2.8946618790       17.2172412022       35.2772327033
  C        -3.4029815134       15.7605206300       36.6207780798
  H         4.8469380096        6.4777568051       11.0678970214
  H         4.0943123661        5.1068142966       11.9129784288
  C         2.6754256188        6.5011947502       10.9355580262
  H         6.3377237254        6.1431241172       30.1733310989
  H         5.0555742767        6.0794128793       31.0699226601
  C         6.7469521514        6.2248752526       32.2649299285
  H        -9.8673439450       10.6064527637       24.3236598869
  H        -8.7014052555        9.2201575709       24.5064926540
  C        -9.9023480438        9.9399394869       26.2218630307
  S        -3.7167953588       14.1268911325       37.1390636059
  C        -3.5668899890       16.8071019185       37.5987636617
  H         2.4131060319        7.5486844077       11.0834226039
  H         2.8349787652        6.2939960124        9.8665243974
  H         1.7748075895        6.0029962487       11.2897932017
  H         7.3914674796        5.3426964737       32.0022425560
  H         5.9850364766        5.9421015408       33.0007895803
  H         7.3557023461        7.0296675488       32.5601095568
  H       -10.7933823912        9.2776285496       26.0278081343
  H       -10.2553400677       10.9371591113       26.4646825204
  H        -9.2830618868        9.7764741664       27.1421557141
  C        -3.9146098449       14.8545050527       38.6903937622
  N        -3.9003375750       16.2279708652       38.7069975276
  O        -3.1484809355       17.9666795017       37.4367823654
  S        -4.5839658813       13.9536723787       39.9934752223
  C        -4.2159698137       17.0052889024       39.9028753919
  H        -4.4197998841       17.9936159903       39.6023121957
  H        -5.0963080872       16.6951019969       40.4731177882
  C        -2.9935704849       17.1318767061       40.8169446619
  H        -2.7057985193       16.1448070120       41.2222332268
  H        -2.2683650919       17.6549812668       40.1688184641
  H        -3.1826286116       17.8480842200       41.6357849329
