352
i=
  H         2.8517627474        3.5138671829       12.6160098779
  C         3.6456472273        2.8060437698       12.9372308421
  H         3.1699630966        1.8307674306       13.1622574362
  C         4.6231576665        2.5354591544       11.8554746621
  C         4.2267176809        3.0156745420       14.3421685637
  C         4.1096423595        2.5036561052       10.4541324698
  H         5.0220854637        1.5206246722       11.9983959091
  H         5.5239435548        3.1316196492       12.0608416310
  H         4.8838658107        3.8148260693       14.4985625734
  H         4.9293238559        2.2589500068       14.6888278870
  H         3.5036602796        3.0961162230       15.1448123649
  C         4.6129705060        1.3872997303        9.6038448099
  H         2.9992261496        2.3099328695       10.4642529396
  H         4.2369959109        3.4166438710        9.9236614147
  C         5.6667160390        1.8717335101        8.5183301472
  H         3.7702909865        0.8530646008        9.1068763893
  H         5.1121207478        0.6279659981       10.2796446974
  C         6.8262116084        2.7481427689        9.0025737657
  H         5.0618754187        2.2845422121        7.6898376908
  H         6.1459713827        0.9307448185        8.1245180620
  C         8.2713356933        2.1047896202        9.1312653052
  H         7.0082880261        3.5575937310        8.2118934517
  H         6.4442342579        3.2974679168        9.9004392558
  C         9.4227272222        3.0464201272        9.3257255592
  H         8.5821197201        1.3813942539        8.4123035582
  H         8.1887447521        1.5531035363       10.0957552532
  C         9.0411543916        4.3007631296       10.0569974007
  C         9.7501555572        3.7470819947        8.0799267583
  C        10.6175093772        2.3631025252       10.0530815756
  C         9.1296577072        5.4251709902        9.2568700749
  C         8.5906228018        4.6504184033       11.3557997719
  C         9.6799934059        5.0965963526        7.9939713863
  C        10.2333838468        3.1615207814        6.9100807376
  H        10.3270926184        2.0031542685       11.0333413819
  H        10.9679332326        1.5261973308        9.4175022529
  C        11.8692827176        3.2402803834       10.2703213083
  S         8.5747279478        6.8504411136       10.0085450997
  C         8.3455558185        5.9750486561       11.4827623821
  H         8.4848752119        3.8564778400       12.0599771776
  C         9.9537293512        5.7596425899        6.8277341581
  H        10.2840980938        2.0723616210        6.8968182971
  C        10.4718311736        3.7959187398        5.7363268180
  H        11.5479237526        4.1772070776       10.6519574807
  H        12.5261261722        3.4655860701        9.4640784024
  C        12.8912209442        2.6454244305       11.2081359877
  C         7.6796218880        6.5749178607       12.7043630675
  C        10.4031921312        5.1383593792        5.6474155344
  H        10.0095899250        6.7919426595        6.7104171664
  C        10.7860000960        3.3995181138        4.4535004406
  H        13.7486558004        3.3514160586       11.1809244904
  H        13.3105466247        1.6864628231       10.8710650482
  C        12.4874652019        2.4043787334       12.6190725950
  C         7.8361593790        7.9645650275       12.9985616054
  C         7.1952591347        5.6994800407       13.8936676326
  C        10.7466626039        5.7786523701        4.3242375056
  C        10.9443350154        4.4463150851        3.5994468062
  S        11.0329666992        1.9156817738        3.7508810104
  H        11.9881246505        3.2807865775       12.9523230616
  H        11.7240531021        1.5914850604       12.7035243620
  C        13.6282733230        2.2117034475       13.5965931010
  N         8.2754892635        8.9455545678       12.0928253835
  C         7.5461575730        8.5278776003       14.2644266668
  C         6.9476243719        6.2537294365       15.1331639580
  H         6.8755541037        4.7008826173       13.7521412307
  C        12.0695282877        6.6362177998        4.2668084060
  C         9.5441204045        6.5640577263        3.6544113192
  C        11.2819213224        4.0342472284        2.3102578824
  C        11.4546825275        2.6857508982        2.2426903695
  H        14.3556985090        2.9887322415       13.6038813263
  H        14.1660978847        1.2789794402       13.5028571647
  C        13.0402511714        2.2132812465       14.9814054901
  S         8.3001004327       10.4333558696       12.7903393843
  N         7.8762124576        9.9155473213       14.3396549030
  C         7.2254081201        7.7206998051       15.3609625027
  H         6.5620983504        5.5184325447       15.8809517946
  H        11.9733750177        7.4812966547        4.9393082747
  H        12.2198213270        7.0154707535        3.3242258222
  C        13.3945214861        5.8976141112        4.5952676271
  H         9.2561698155        7.4024184318        4.2833313644
  H         9.8890155306        7.0717513714        2.7631462927
  C         8.2856586639        5.7326745898        3.2580358577
  H        11.2388372825        4.7535031438        1.5113683438
  C        11.7423672732        1.8929307215        0.9920026563
  H        12.7148571390        3.2169520783       15.1864546951
  H        12.0739611199        1.6508906012       14.9757046789
  C        14.0473545864        1.8901962714       16.0648632127
  C         7.0257580551        8.4466433691       16.5700349300
  H        13.3402253648        5.3695353224        5.4745151640
  H        13.6722074063        5.1768856247        3.7972754440
  C        14.6556368850        6.8187409960        4.8014089055
  H         7.8286286053        5.2681511819        4.1472970135
  H         8.7004182671        5.0407167376        2.5652956413
  C         7.1913563999        6.6676833248        2.6390546346
  C        11.8134361159        0.4875065051        0.8881243486
  C        12.1075412769        2.6056013593       -0.3513666756
  H        15.0413891791        2.1561207486       15.7257718262
  H        14.0169256354        0.8104632217       16.1280938689
  C        13.7051222393        2.5604916936       17.4075287520
  H         7.1965370160        9.5058198760       16.5845909887
  C         6.6291347965        8.0015300901       17.7851096961
  H        14.4614008490        7.5971050248        5.4283342257
  H        14.7435582931        7.2641694069        3.8415027828
  C        15.9408694537        6.0812272990        5.0689335576
  H         6.8966980336        7.3673217195        3.4627530195
  H         7.7960428096        7.3816105930        2.0158975103
  C         6.0317074011        5.8938565083        1.8797222076
  N        11.4676791700       -0.4129098238        1.8753569843
  C        12.1732163745       -0.1865804577       -0.2739118414
  C        12.2769338061        1.9455121037       -1.5765062160
  H        12.2034581797        3.6846228870       -0.3522791352
  H        12.8104880680        2.2540888488       17.9207652353
  H        13.6620514690        3.6674401416       17.4066810715
  H        14.5834425122        2.3540714142       17.9605622008
  S         6.3342066239        6.3503365663       18.2441584912
  C         6.6284885329        8.9093598502       18.8676293027
  H        15.7574689487        5.0802109035        4.6766579728
  H        16.8193915762        6.4537615857        4.3998961328
  C        16.2398877485        6.1242460181        6.5867667475
  H         5.9757954162        5.0230616544        2.4791794733
  H         6.3576703562        5.5104555312        0.8620880837
  C         4.7186913267        6.6610511326        1.6975580777
  S        11.7005517811       -1.9205777055        1.3596556228
  N        12.1648292753       -1.5529285975       -0.1564363949
  C        12.4086422747        0.4390815100       -1.5185693594
  H        12.3520813845        2.4765491080       -2.5213571011
  C         6.2299738366        6.9082868725       19.8933383417
  N         6.3170626881        8.2582127665       20.0850022839
  O         6.7448698433       10.1579898077       18.7121253712
  H        16.5306942912        7.1381390882        6.8900267902
  H        15.3647414848        5.8612037703        7.2135067281
  C        17.4958225562        5.2877648709        6.9501472970
  H         3.7938351269        6.1725202698        1.4769322692
  H         4.5428651962        7.0513902492        2.6783597241
  C         4.7814180210        7.8091566499        0.7401193135
  C        12.6322774296       -0.3841766402       -2.6452620068
  S         5.7824676571        5.7877624685       21.2120888934
  C         6.2115193750        8.9697838496       21.3757557152
  H        17.4504598913        4.9989554856        8.0080307106
  H        17.5650614735        4.3399925050        6.3391648615
  C        18.8683723162        5.9879153966        6.8185858845
  H         4.6609332061        7.3436969221       -0.2912888555
  H         5.7929522148        8.2561581925        0.7543026202
  C         3.6876576661        8.8487677488        1.0718038096
  H        12.3399864375       -1.4354089165       -2.6458699935
  C        13.0290974762       -0.1339037060       -3.8803604557
  H         5.4286911317        8.5027686516       21.9377106341
  H         5.8255670864        9.9728813627       21.1333807795
  C         7.6815668741        9.0631655139       21.9127482682
  H        19.3877131912        5.9586120936        7.7341330695
  H        18.7018890952        7.0285224102        6.5556796747
  C        19.8505271766        5.3090237222        5.9008493816
  H         3.2337063031        9.0700422749        0.0613068479
  H         2.9936302142        8.5045874823        1.7886088287
  C         4.3018264464       10.0959803617        1.5843459138
  S        13.5901858055        1.3501099262       -4.4545596288
  C        13.2419365184       -1.3091339113       -4.7869157837
  H         7.7896421342        9.9899411883       22.3948116064
  H         8.5344202151        8.9903174194       21.2573449622
  H         7.7588829400        8.2460263432       22.6929325815
  H        20.6310150273        4.7838724629        6.4345983543
  H        19.4381136392        4.7460144638        5.0463619735
  H        20.3184888040        6.2052536698        5.4784971397
  H         4.6409958835       10.7061512418        0.8203412652
  H         3.5378225315       10.7420350465        2.0696735034
  H         5.1374511660        9.9381197995        2.2691513271
  C        14.0769297718        0.4788100780       -5.9971458049
  N        13.8815510991       -0.8903468191       -5.8988811526
  O        12.9139147363       -2.4601926837       -4.6016058809
  S        14.5019778572        1.1907388350       -7.6278906265
  C        14.0667077774       -1.7267523398       -7.0495012328
  H        14.5983469288       -2.5939570022       -6.7505197199
  H        14.7332947763       -1.2652872537       -7.7741621668
  C        12.8068700021       -2.2083319365       -7.7758813120
  H        12.7756438291       -1.5701269070       -8.6290782632
  H        11.8757017748       -2.1451399918       -7.2421678143
  H        12.8337123208       -3.2340096478       -8.0915587028
  H        -3.7140806323       14.5953055977       16.3659150552
  C        -3.1557688304       13.7001631470       16.2451107298
  H        -3.7805305719       12.8715251933       16.5385633246
  C        -2.0496056096       13.5346107105       17.2603404514
  C        -2.9039178411       13.4771404587       14.7419741014
  C        -2.3729367232       13.6879055347       18.7742305945
  H        -1.6875892986       12.4897366814       17.1724056415
  H        -1.2214295081       14.1372057854       16.8534756528
  H        -2.2143021560       14.2315707036       14.3377231816
  H        -2.5610536860       12.4337067746       14.4742433991
  H        -3.8333744787       13.6056513114       14.2232927220
  C        -1.1857821801       13.5230825543       19.7245138292
  H        -3.2676007118       13.1021031217       19.0419015791
  H        -2.7643916513       14.6507619414       18.8202459444
  C        -1.8540609537       13.2984620591       21.0718703728
  H        -0.4015310793       12.7716296260       19.5721129204
  H        -0.6902365975       14.4391770957       19.7360612203
  C        -0.8882768766       12.7693277050       22.0973178087
  H        -2.6638992407       12.6332777517       21.0232974925
  H        -2.2019010294       14.2296906215       21.5041532503
  C         0.3908329605       13.6156491822       22.3235015253
  H        -1.4606782888       12.5664206985       22.9815128996
  H        -0.6830349401       11.8543616364       21.6342555587
  C         1.4977980714       12.9229922738       23.2005436331
  H         0.8143711747       13.9619549055       21.3411370053
  H         0.2534307771       14.5683406877       22.8316767138
  C         1.9792911219       11.5690561117       22.5494823943
  C         0.9807659638       12.1193933911       24.4517313127
  C         2.7699225558       13.8018341911       23.4657593317
  C         1.7368672548       10.4425036470       23.3447136747
  C         2.5647223213       11.1760103504       21.3762201475
  C         1.1647712484       10.7503207082       24.5941239832
  C         0.3879382224       12.7141892231       25.5054093102
  H         2.9058432402       14.3443501485       22.5067765927
  H         2.5039816319       14.4989017665       24.2656223869
  C         4.1015654977       13.0514183467       23.8399615449
  S         2.2613497508        8.9918594477       22.5921209431
  C         2.6214969563        9.8287797197       21.1726713324
  H         2.7833857402       12.0234549696       20.6946884428
  C         0.6961923938       10.0243174117       25.6415569342
  H         0.3573841825       13.7521530046       25.4998746952
  C         0.0565986446       12.0377253197       26.6866032752
  H         4.3039354771       12.1192700505       23.3836034557
  H         3.9377372591       12.8547693933       24.9270471133
  C         5.2873585691       14.0431269846       23.8968085314
  C         2.9248673455        9.1193250607       19.8382616041
  C         0.1753843078       10.6788017839       26.8022236440
  H         0.8452156513        8.9386185448       25.6419258667
  C        -0.3015901090       12.4502891332       27.9127724584
  H         6.0699971674       13.7306429321       24.5633054247
  H         4.9572347062       14.9237008516       24.3910174202
  C         5.9066495102       14.3866513134       22.5471693596
  C         2.8279690984        7.7671860057       19.4675926964
  C         3.3711000987       10.0036903907       18.6826990810
  C        -0.2314625021       10.0090130047       28.0066786989
  C        -0.4626929594       11.3482077577       28.7060029005
  S        -0.5857744818       13.9220904710       28.5824905024
  H         6.6139194552       15.2118615663       22.7251544747
  H         5.0967964495       14.5974553759       21.8503788064
  C         6.5622942439       13.2598108343       21.8521905991
  N         2.3885585257        6.7065525236       20.3216198838
  C         3.0204101291        7.2795054368       18.1782702257
  C         3.6518564607        9.5249489576       17.4311221033
  H         3.5353651864       10.9540657005       18.8910407146
  C         0.8861614865        9.1768419817       28.6642611133
  C        -1.4696577106        9.1876926057       27.8533649620
  C        -0.6467140427       11.7554620154       30.0177659678
  C        -0.8079573270       13.1069965618       30.1243890783
  H         7.6679888210       13.2146091988       22.1660129166
  H         6.2542534816       12.3541702615       22.2769496718
  C         6.5173239478       13.2600496667       20.3139388815
  S         2.3309669817        5.2980446911       19.5815302939
  N         2.7758133370        5.9030054619       18.1517919526
  C         3.3581556501        8.1205342101       17.0714196698
  H         4.0166106459       10.1836352346       16.6583397718
  H         1.2162364054        8.5074782953       27.8891522481
  H         0.5301054724        8.6538247402       29.5233198225
  C         2.0693873826        9.9539677948       29.3263708425
  H        -1.2714442114        8.4220049868       27.1466344263
  H        -1.7345501321        8.7065865144       28.7759218316
  C        -2.7950886495        9.9541525591       27.5837562950
  H        -0.6454671885       11.0370705556       30.7930805303
  C        -1.1059019405       13.9717213937       31.3242969460
  H         6.0755728842       14.1352678120       19.9143994943
  H         5.9332451974       12.4597013020       19.9098114990
  C         7.9097174791       13.1734129779       19.6574146656
  C         3.5582197076        7.5281360158       15.7698547583
  H         2.5803029983       10.7338571037       28.7076227687
  H         1.8628398959       10.3729631470       30.2912297557
  C         3.2731475960        8.9932987701       29.6037627391
  H        -2.7229975566       10.4288497811       26.6152629390
  H        -3.1168326213       10.7199192189       28.3929035878
  C        -3.9843631911        9.0449536990       27.4819963163
  C        -1.1257544187       15.3976916539       31.4486803052
  C        -1.5699065263       13.2529361216       32.5078954618
  H         8.6023146980       13.9259388090       20.0950118872
  H         8.1670841215       12.1234363297       19.9010759644
  C         7.7373056061       13.4435376184       18.1271327715
  H         3.4029203107        6.4401918453       15.8211346852
  C         3.9286649496        8.0515869913       14.5428944969
  H         3.5850521773        8.7907545258       28.5862885070
  H         3.0041986600        8.0048652263       30.0508846886
  C         4.4411868942        9.6651645446       30.3498413640
  H        -3.9210752118        8.5206208618       26.4874281440
  H        -4.0276641875        8.3116920943       28.2446336054
  C        -5.2880124768        9.8143246499       27.4706819190
  N        -0.7105825870       16.3024033969       30.4630369394
  C        -1.5404580534       16.0627212442       32.5826542052
  C        -1.9567670496       13.9378140533       33.6679091192
  H        -1.6746787806       12.2089477523       32.5185765137
  H         8.2285493772       14.3763091837       17.8169274814
  H         8.0184457376       12.6979879534       17.4008887049
  H         6.6727522244       13.5905878357       17.8079115726
  S         4.3618338364        9.6524556325       14.1439493089
  C         3.9735193230        7.1835085828       13.4048663815
  H         4.6939684282       10.5974106973       29.8252832280
  H         4.1295195667        9.9294941135       31.3706133188
  C         5.7713801023        8.8572995299       30.4234412250
  H        -5.4301934194       10.4471233975       28.3376638366
  H        -6.0293984607        9.0725293024       27.6507016553
  C        -5.4590475320       10.6158028917       26.1466141972
  S        -0.8417807859       17.8331039776       31.0150206455
  N        -1.5970522249       17.4343529339       32.4111417642
  C        -1.9077534563       15.4562310761       33.7820049773
  H        -2.2146474539       13.3570368826       34.4887357047
  C         4.6690007075        9.1220076182       12.5075135534
  N         4.4422577678        7.8302063961       12.3300181230
  O         3.7019432880        5.9527216231       13.3875904907
  H         6.5570639271        9.4612535525       30.8463970818
  H         5.9949742638        8.6496105197       29.3824586451
  C         5.6410664504        7.5239199385       31.1622764281
  H        -4.7002669951       11.3484456672       25.9945780734
  H        -5.2045251920        9.8707746202       25.3947581477
  C        -6.8825094812       11.2261219160       25.9878861290
  C        -2.2408694399       16.2760847909       34.8995830427
  S         4.7317134520       10.1720825347       11.2414670487
  C         4.6022868549        7.2376986239       10.9767194258
  H         5.6025710633        7.9102127538       32.2292936819
  H         4.7316800427        7.0147695549       30.9080948165
  C         6.8209321738        6.5442207112       31.0754868778
  H        -6.9060275345       12.2414541235       25.5181566620
  H        -7.3922488717       11.3597660798       26.8901030890
  C        -7.8428367933       10.3034857837       25.2655707882
  H        -1.7336952962       17.1371643522       34.8106165714
  C        -2.8009333603       16.0726133647       36.1562098972
  H         5.3173921800        7.7498799071       10.4272463151
  H         4.9699688742        6.2625444831       11.1670338305
  C         3.2334660401        7.1600267988       10.3845432866
  H         7.4836091359        6.6183231386       31.9177179782
  H         7.4772033127        6.8080619748       30.2702752972
  C         6.3450883639        5.0822042039       30.8881085759
  H        -7.7348717655       10.4226436216       24.1883801766
  H        -7.5466344528        9.2608051884       25.5787193052
  C        -9.2851446682       10.4413120794       25.7043582889
  S        -3.4970243342       14.5859222474       36.7151967508
  C        -2.7110879675       17.1344168237       37.1907076320
  H         3.1262988937        7.5583515351        9.3916867337
  H         2.9432701757        6.0609301124       10.1482134453
  H         2.3997916711        7.5338397763       11.0071010159
  H         7.2689425820        4.5168813239       30.6458488386
  H         5.5981004602        4.9188735049       30.1244068179
  H         6.0118473111        4.5404941887       31.7983617539
  H        -9.5604470759       11.4310931262       26.0037129203
  H        -9.3731318258        9.8432111886       26.5668800917
  H        -9.8519311902        9.9059318603       24.9769447852
  C        -3.6643445919       15.3819220865       38.2698086048
  N        -3.2865606664       16.6778834949       38.3243423188
  O        -2.0550712637       18.1875702804       37.0028191203
  S        -4.2238899238       14.6196372071       39.7474119352
  C        -3.3696442043       17.4247762632       39.5469440004
  H        -3.3129073462       18.5207847571       39.2432611311
  H        -4.3620239652       17.2828876008       39.9557133108
  C        -2.2283871037       16.9731533610       40.5204068592
  H        -1.8166293997       15.9715434191       40.3626697119
  H        -1.3688467814       17.6202221857       40.3596904410
  H        -2.6953206460       17.1406364548       41.5455047430
