352
i=
  H         4.8485757797        0.9947574393       12.9945815877
  C         4.0719550520        1.7011055256       13.1121312788
  H         4.5288192407        2.6898486373       13.2556136743
  C         3.3507403938        2.1013582240       11.8982859297
  C         3.1912254704        1.4551829552       14.4002997645
  C         4.2055360611        2.2311530568       10.6067436536
  H         2.8586501883        3.0367884589       12.0394830895
  H         2.6286446862        1.3068145992       11.6622604435
  H         2.6703236669        2.3373120141       14.6536133106
  H         3.6327626315        1.1678921495       15.3213002643
  H         2.5181131354        0.6281089786       14.2214997252
  C         5.0511007803        1.0764999999       10.1153570207
  H         3.4742761166        2.6382635196        9.9428034644
  H         4.9164665569        3.0828446171       10.6823751965
  C         5.6605423524        1.2347459164        8.7008794387
  H         4.3755494663        0.1743842264       10.1565706303
  H         5.8172494438        0.8843892577       10.8643386149
  C         6.8529863947        2.2013594762        8.4068317959
  H         4.8636523651        1.5134237802        8.0322442362
  H         5.8799112811        0.2946501668        8.3489323065
  C         8.1221506369        1.6297808518        8.9729650684
  H         6.8929419134        2.5127842054        7.4133102611
  H         6.5924659299        3.1383609701        8.9106682114
  C         9.2417397070        2.5722957655        9.1814798303
  H         8.4658494803        0.8060216056        8.3002403110
  H         7.8894005399        1.1456221670        9.9807307139
  C         8.8590590546        3.9070738761        9.9038728172
  C         9.6350877781        3.2660956850        7.9489550826
  C        10.4589910036        1.8954844194        9.8529427306
  C         9.0527210663        5.0150431706        9.1111327241
  C         8.3654482454        4.2555750187       11.1780247744
  C         9.5384132520        4.6503616279        7.8920846979
  C        10.2241090349        2.7585029709        6.7777793124
  H        10.2205597303        1.3567358084       10.8041334452
  H        10.8100373674        1.0986302401        9.1949517972
  C        11.6910053166        2.7925033166       10.1359660169
  S         8.5348520453        6.4797051409        9.8540799612
  C         8.0858963184        5.6164164544       11.2904896352
  H         8.2345586730        3.4856669898       11.8834869170
  C         9.9022607070        5.2660898401        6.7284614381
  H        10.3000965716        1.6526313538        6.8250549541
  C        10.4887813735        3.3501307359        5.5972243267
  H        11.4315608979        3.8304432789       10.3117735501
  H        12.4613685395        2.8862939359        9.2849050100
  C        12.5389502946        2.1673367493       11.2232550559
  C         7.5946290653        6.3557285569       12.5437728922
  C        10.3197146804        4.7043099241        5.5406832075
  H         9.8139204463        6.3968037940        6.7332045932
  C        10.8484329857        2.9804568574        4.3855666053
  H        13.5713489025        2.5858744478       11.0728376302
  H        12.7625429284        1.1756775772       10.9999072390
  C        12.0034399717        2.4069226538       12.7247626550
  C         7.6088462535        7.7902875797       12.7771148601
  C         7.1496915702        5.4672709184       13.6774900045
  C        10.7756267227        5.3719758368        4.3106616552
  C        11.0061178706        4.0876086266        3.5682507791
  S        11.2909217527        1.5006360764        3.7214435094
  H        12.5665710116        3.2325278573       13.0901188685
  H        11.0101225575        2.8055784036       12.6445338084
  C        12.0795069635        1.2153182998       13.6770090897
  N         7.9044882054        8.7806098348       11.8355886919
  C         7.4262592071        8.2899152925       14.0199425281
  C         6.8305312120        6.0845859293       14.9069844863
  H         6.9194568489        4.4591558282       13.4830094058
  C        12.1522508754        6.1707200721        4.5205772982
  C         9.7195796169        6.3549000546        3.8081201512
  C        11.3845309847        3.7041952231        2.3077321493
  C        11.5302584825        2.3685799250        2.2031740484
  H        13.0257714079        0.7912261666       13.7048068328
  H        11.2527652281        0.5683969101       13.5438864096
  C        11.8527934451        1.6753837286       15.1279908630
  S         8.0867850443       10.2005569137       12.5949024199
  N         7.6598888594        9.6830862982       14.0851202473
  C         7.0688730231        7.5026165722       15.1154644834
  H         6.5100067131        5.4488031047       15.6825851494
  H        12.0845129620        6.9734530823        5.3144270317
  H        12.2087953778        6.7837502659        3.6289617295
  C        13.3929872676        5.3151827711        4.8420149931
  H         9.6390510822        7.0974333180        4.5823436269
  H        10.1101224327        6.8212964984        2.8312166129
  C         8.3698531879        5.5619230634        3.6244638486
  H        11.3915389062        4.3798221637        1.5264884878
  C        11.7857873114        1.6370974105        0.9000402384
  H        11.3689529458        2.5923716096       15.1483781382
  H        11.1106064627        1.0852084473       15.6537501521
  C        13.1790061902        1.8265696853       15.9249011391
  C         6.7577665947        8.1735611979       16.3363522850
  H        13.2665399492        4.6534161203        5.7435288500
  H        13.6636882584        4.6616564781        4.0964035299
  C        14.6036206246        6.1906001369        5.1162665540
  H         7.8901135703        5.3713504619        4.5995825217
  H         8.5072236533        4.6167066604        3.0850812469
  C         7.3301168943        6.3078193328        2.8284040580
  C        11.9536175198        0.2455838286        0.7126766116
  C        12.0516794644        2.4591008152       -0.2957218083
  H        13.7433431623        2.6208067363       15.4722795996
  H        13.7959038910        0.9607945313       15.8396431291
  C        12.8931438357        2.2239179185       17.3940902044
  H         6.8168026220        9.2807314786       16.3379280681
  C         6.4754484984        7.6187307751       17.5887707785
  H        14.3568933233        7.0610521229        5.7439793648
  H        14.8166890837        6.6272782511        4.2137635688
  C        15.9188799394        5.5633656988        5.5758242167
  H         7.2064927733        7.3762524890        3.1653401704
  H         7.5428329857        6.4603787869        1.7390458396
  C         5.9532647899        5.6577259857        2.9250022417
  N        11.7138553122       -0.7460055463        1.7199912070
  C        12.3677898173       -0.3632654567       -0.4678035408
  C        12.5379108238        1.8642167952       -1.4965143854
  H        11.8315458605        3.5153344289       -0.3062358358
  H        12.2032414659        3.1141663069       17.4629100275
  H        13.8276315729        2.5093558450       17.8922678566
  H        12.3391265415        1.4241867842       17.9952858601
  S         6.0766475885        5.9550365607       18.0686113837
  C         6.4295028205        8.5109590644       18.7296110704
  H        15.8181628747        4.4974703971        5.3966643520
  H        16.7925320918        6.0179886630        5.1000210716
  C        16.2465403318        5.7580465523        7.0474198879
  H         5.6324462717        5.8027740650        3.9597360010
  H         6.2985668226        4.6016535476        2.7105107855
  C         4.9232799394        6.3547027329        1.9901717236
  S        12.0057720584       -2.2213272828        1.1446828376
  N        12.5027322237       -1.7399373614       -0.3578523787
  C        12.7352672773        0.3673124722       -1.5800378858
  H        12.8438602905        2.4826701959       -2.3387007273
  C         5.9035366021        6.5413652337       19.7888865683
  N         6.0776459523        7.8758607354       19.8792877970
  O         6.5917085575        9.7321067448       18.6061415665
  H        16.3100531140        6.8206932175        7.2565397215
  H        15.5007223079        5.2535880599        7.6182371121
  C        17.5534238184        5.0786124646        7.4772967042
  H         5.3753714910        6.4586902124        0.9936133562
  H         4.0816864402        5.6905423232        1.8155930060
  C         4.2833755037        7.6131178108        2.5084901750
  C        13.1424707069       -0.3786520117       -2.7294960505
  S         5.5696858147        5.5498076302       21.1022204874
  C         6.1004574728        8.5489230474       21.1767300148
  H        17.5808096120        4.8468584158        8.5462666308
  H        17.5723256980        4.1221443459        6.8589641112
  C        18.7159535255        5.9816091220        7.1426329081
  H         4.7494102337        8.0170012311        3.4392453356
  H         3.2714867967        7.2889008971        2.7092194688
  C         4.0846291108        8.7366745848        1.4492948406
  H        12.6197940859       -1.3234982710       -2.8551822234
  C        13.7464996034        0.0237793665       -3.9031226424
  H         5.3309772807        8.1882609798       21.8114224372
  H         5.8978833582        9.6116098126       21.0425870669
  C         7.4766739284        8.5834822469       21.8860751979
  H        19.2929505954        6.1538978550        7.9846431918
  H        18.3937692536        7.0178179281        6.8744917721
  C        19.5850763095        5.3625729398        6.0056004592
  H         3.9835939085        8.3078609262        0.5178948843
  H         3.1490195783        9.2713826191        1.5425272546
  C         5.2722413797        9.6939219540        1.4345441873
  S        14.2223745341        1.6165008780       -4.3908901077
  C        13.7893943547       -0.9748149750       -5.0353327278
  H         7.8227264382        7.6195945983       22.2414772568
  H         7.5780922112        9.3527117506       22.6846033435
  H         8.2896576727        8.8529885565       21.1895902207
  H        20.3108391107        6.1160814050        5.6205240863
  H        20.1963478197        4.4678753815        6.2344977102
  H        19.0108381424        5.0013105722        5.1227582029
  H         6.0038100340        9.3283882501        0.6802716027
  H         4.9894943374       10.7677854481        1.1993876628
  H         5.8401571351        9.6212107283        2.3602801639
  C        14.4998791680        0.9591704561       -6.0258659119
  N        14.3173289511       -0.3758199877       -6.1113707055
  O        13.2699535763       -2.0565558327       -4.9810755397
  S        14.9831249934        1.8758543428       -7.3991692455
  C        14.2948316906       -1.1461297593       -7.3809988541
  H        14.4815989029       -2.1267342940       -7.1544160614
  H        15.1517226156       -0.7569454967       -7.9329360019
  C        12.9603971548       -1.0785342270       -8.2340480186
  H        13.0397733348       -0.2650976454       -8.8750447007
  H        12.1079696541       -1.0756944291       -7.5795881942
  H        12.8411857380       -1.9227266735       -8.8482053743
  H        -2.7917539854       15.0215701624       16.0758805688
  C        -2.9024466134       14.0119214796       16.1921171185
  H        -3.9638695089       13.8791507342       16.4817877525
  C        -1.8851054821       13.4033541961       17.1645593517
  C        -2.6786518810       13.3837782538       14.7576070940
  C        -2.4217092026       13.4089463389       18.5533473899
  H        -1.8906415491       12.3583750499       16.7236628440
  H        -0.9273590048       13.9172991755       17.1408579701
  H        -3.3850031332       13.8954234226       14.0889635679
  H        -1.6165288079       13.7345512223       14.5457236008
  H        -2.6769982794       12.3175568815       14.7535219403
  C        -1.3694499766       13.0673971034       19.6564071902
  H        -3.3108352757       12.7272222361       18.5959910720
  H        -2.8514074649       14.4354808678       18.6824418276
  C        -1.9462966943       13.1266087550       21.0778297804
  H        -0.8026070391       12.1001552379       19.5264367553
  H        -0.6665075490       13.8809952404       19.6293462040
  C        -0.9786471130       12.5711984524       22.0971367557
  H        -2.7356612963       12.4298218570       21.0763960155
  H        -2.2609539747       14.1470235073       21.2732513847
  C         0.2601999761       13.4280765949       22.4337507794
  H        -1.4271814871       12.2140653850       22.9964039193
  H        -0.6542334759       11.6596418462       21.6746266673
  C         1.3945690047       12.6768773902       23.2027075296
  H         0.5711259929       13.6973176254       21.4085878407
  H        -0.0028538263       14.3879162797       22.9431410329
  C         1.7481784786       11.3814243280       22.5244236126
  C         0.8157959547       11.9962505377       24.3840970578
  C         2.5827799164       13.6538688462       23.3789660279
  C         1.4329952919       10.2622063448       23.2667428623
  C         2.1779427025       10.9798488624       21.2784391711
  C         0.9505306558       10.7051539076       24.5419154305
  C         0.2421952494       12.6349808768       25.5126102163
  H         2.7251636821       14.0924448089       22.4220498775
  H         2.3070242368       14.4327192409       24.1059027896
  C         3.8987898373       12.8520973731       23.6943322821
  S         1.7050715341        8.7457542035       22.5870005266
  C         2.1706388686        9.6151395155       21.1413482662
  H         2.3957621680       11.8139032157       20.6613462804
  C         0.5152354699       10.1077795143       25.6404174159
  H         0.0015625507       13.7091670988       25.5523825193
  C        -0.1454264168       12.0072715265       26.6522787807
  H         4.1672319028       12.1805991916       22.8660062588
  H         3.8160429374       12.2950415594       24.6291237808
  C         5.0477289553       13.8645682601       23.7039720822
  C         2.6852902872        8.9311200887       19.8871376098
  C         0.0174885025       10.7066637644       26.7918458461
  H         0.7020051314        9.0221795938       25.6854081998
  C        -0.6282472288       12.3705260235       27.9255950548
  H         5.8104040048       13.5903534325       24.4118670000
  H         4.5736123416       14.7614090334       24.1050036696
  C         5.7339484616       14.1040322537       22.2743512161
  C         2.4837313072        7.5453172611       19.5752267256
  C         3.0069972607        9.8130027357       18.7377833049
  C        -0.5289875827        9.9945983415       27.9997140233
  C        -0.9145078167       11.2930914182       28.7006375865
  S        -0.9094155193       13.8880974248       28.7028017489
  H         6.2215093669       15.1331247955       22.2490972666
  H         4.8714720790       13.9694607109       21.5824806646
  C         6.8596931212       13.1033594146       21.9276846874
  N         2.0766985506        6.4836656815       20.4422719194
  C         2.7137774227        7.0490810032       18.2750464332
  C         3.2920553410        9.2973314261       17.4374099002
  H         3.2700581006       10.8802422486       18.8806138372
  C         0.5290350328        9.2184634264       28.8087642834
  C        -1.7357557283        9.1287625245       27.7185002889
  C        -1.2827842816       11.6549433870       29.9776302387
  C        -1.3245565665       12.9912612361       30.1649713697
  H         7.7423549401       13.7579002819       21.8995351763
  H         6.8220504036       12.3297114530       22.6357140612
  C         6.6930209748       12.4877496038       20.4981294483
  S         2.0056057884        5.0633760712       19.5385390498
  N         2.4868266461        5.6984497233       18.1530676151
  C         3.0547335699        7.8586100169       17.1494203605
  H         3.5317053788        9.9824245123       16.6169140275
  H         0.9032957745        8.5257258256       28.0871513497
  H        -0.0090470575        8.5431952005       29.3946704561
  C         1.7886352921        9.8019890098       29.3906814851
  H        -1.6342756364        8.5688062445       26.8280108127
  H        -2.0705975835        8.5402749134       28.5706139778
  C        -2.9904648124        9.9669397707       27.3702927518
  H        -1.3666836707       10.9193835559       30.7569616073
  C        -1.6423062704       13.6114386376       31.5076313302
  H         5.9464378933       11.6644637607       20.5967510171
  H         7.7027887148       12.2443825620       20.2599517619
  C         6.1739869541       13.3405592891       19.4057689605
  C         3.3073772234        7.1778976528       15.9366936284
  H         2.2681126665       10.3358218366       28.5978468866
  H         1.4429558729       10.5843409785       30.1386914821
  C         2.7555628443        8.7939793274       30.0392802959
  H        -2.7398834898       10.6897499144       26.6282119175
  H        -3.3224241455       10.4384827135       28.2545821548
  C        -4.1059294777        9.0985400669       26.8042202210
  C        -1.6191929876       14.9870136840       31.8740006766
  C        -1.9598281189       12.7491633179       32.6561331235
  H         5.0817447003       12.9240442260       19.2817106931
  H         6.2531573491       14.3703908753       19.6672110473
  C         6.9666294485       13.2125800285       18.0736436120
  H         3.1171067147        6.1532526950       15.8919324763
  C         3.5993060356        7.4984675565       14.6540277131
  H         3.4215246219        8.3573355294       29.2663981276
  H         2.2141411115        8.0453125620       30.5947869118
  C         3.8712963069        9.5426313788       30.8331039505
  H        -3.8140301510        8.5818632261       25.9148213213
  H        -4.4016104673        8.4254943655       27.6619808247
  C        -5.2526040581       10.0586615635       26.5122792377
  N        -1.2406114158       15.9931770484       30.9579744406
  C        -1.9848556050       15.4979306453       33.0978978896
  C        -2.2945303708       13.2954695335       33.8553546026
  H        -2.0385478965       11.6677173405       32.4767118525
  H         7.1834550949       12.2201473312       17.6434456064
  H         6.4213757901       13.7456913593       17.3115831425
  H         7.8992436979       13.7624812259       18.2495642750
  S         4.0434551483        9.0844499555       14.2397812926
  C         3.5962665076        6.4289146851       13.6328078890
  H         3.9549574837       10.5286658924       30.5994901783
  H         3.5772395465        9.4768840549       31.8725208089
  C         5.2642879050        8.8101399533       30.7583875260
  H        -4.9091164866       10.9466523409       25.9877949472
  H        -5.6687966461       10.4386228628       27.4492864066
  C        -6.2968033602        9.2579716173       25.7182433266
  S        -1.5334902082       17.4693010107       31.6153415836
  N        -1.8647883098       16.9152508627       33.1081004030
  C        -2.3906307465       14.7289183636       34.1521110049
  H        -2.5936130368       12.5729433329       34.6253676116
  C         4.1468514507        8.3884519975       12.5863743711
  N         3.8637459788        7.0771549731       12.5013764188
  O         3.2253145125        5.2761419470       13.7234797111
  H         5.9011051912        9.4729984331       31.3984217636
  H         5.5190591039        8.7068244164       29.7543239629
  C         5.3173010918        7.4198198688       31.3735467587
  H        -5.8870890361        8.8568544102       24.7949966953
  H        -6.4214072916        8.3087431390       26.2680042819
  C        -7.3636156069       10.2960511394       25.2384698952
  C        -2.6624619826       15.2866005011       35.4352776324
  S         4.7972299566        9.3605093711       11.1846076238
  C         3.6969204063        6.4179062843       11.2210578315
  H         5.9955368606        7.4695191823       32.2943247108
  H         4.3796183054        7.1820473601       31.8145494916
  C         5.9583921486        6.3434460656       30.5672826694
  H        -6.9225790801       10.7067907210       24.3605508915
  H        -7.4919020291       11.1087941713       25.9272755300
  C        -8.6346510834        9.5631672852       24.7413800479
  H        -2.5346563618       16.3705335002       35.5364548849
  C        -3.2058368671       14.7753103732       36.6072924079
  H         4.6666470649        6.5206454709       10.6799399913
  H         3.5890010304        5.3442317899       11.2620501108
  C         2.4955910723        6.9073511652       10.3417499399
  H         6.7386510067        6.7367310154       29.9318804924
  H         5.2466572436        6.0881731212       29.8449515591
  C         6.4503136042        5.1406173798       31.3431435660
  H        -9.0711747011       10.0379167737       23.8681577335
  H        -8.4412005187        8.4824808597       24.4877027310
  C        -9.7261673228        9.5802806126       25.8903780438
  S        -3.8448687356       13.1740858014       36.9087094390
  C        -3.4214756723       15.6371270057       37.7359292150
  H         2.0615754846        6.0140775297        9.9458199772
  H         1.7114115833        7.4432132353       10.8953396224
  H         2.8420294787        7.4705256338        9.4921310412
  H         6.9123005018        5.3488576227       32.3383722839
  H         7.3173790568        4.7055989992       30.7789474602
  H         5.6709701649        4.3699713884       31.4601377678
  H       -10.7341233801        9.6158042588       25.4855165387
  H        -9.5065023560       10.4389074867       26.5752824413
  H        -9.5550741021        8.7498425808       26.5425907737
  C        -4.2715828710       13.6944235603       38.4928981012
  N        -4.1762692055       15.0392919011       38.6459900586
  O        -3.2202508697       16.8450247110       37.7406522990
  S        -5.0969552677       12.7531162765       39.7725006524
  C        -4.6819782788       15.8339198042       39.7793213183
  H        -4.9223916605       16.8523664094       39.4107734314
  H        -5.5907077991       15.5248771145       40.1863499248
  C        -3.6380062916       15.9021440166       40.8480690088
  H        -4.0869763249       15.4188463879       41.7032750460
  H        -2.8338367871       15.3278331513       40.4759164461
  H        -3.3008253536       16.9505389710       41.0284949486
