352
i=
  H         4.4506683025        1.2292623702       12.1175900310
  C         3.7786901130        2.0636453146       12.1127275408
  H         4.2900908635        3.0075598388       12.1332162626
  C         2.9023526671        2.0310890449       10.8190227725
  C         2.9486633832        2.0386134701       13.4548169337
  C         3.7725380062        2.4454179027        9.5591070470
  H         2.0783422766        2.7093167429       10.9221295823
  H         2.4053350783        1.0187092954       10.6562420709
  H         3.7431413308        2.1253365824       14.1620194078
  H         2.5210597794        1.0654456038       13.3511426361
  H         2.2733857997        2.8738652898       13.6652867909
  C         4.6130129844        1.3392834059        9.0899308267
  H         3.1231990252        2.7794291242        8.6804772221
  H         4.3035418799        3.3380889759        9.6696685473
  C         5.7027486327        1.6151261619        8.0226806414
  H         3.8956556799        0.6399624987        8.7226269494
  H         5.1258560517        0.8304337270        9.8946681605
  C         6.6968321787        2.6704320428        8.4867624033
  H         5.2052181445        1.9432511648        7.0970413575
  H         6.2284777707        0.7425326838        7.6825648477
  C         8.0092688399        2.0575376129        8.8996481536
  H         6.7351280379        3.4476274836        7.7365190797
  H         6.4233492765        3.0115711016        9.4536565832
  C         9.1467744928        3.0716354980        9.0797422352
  H         8.2458375068        1.3406947572        8.0946407670
  H         7.8881517929        1.2937374716        9.7233093639
  C         8.6919309034        4.3584521481        9.7419309446
  C         9.5458392431        3.8675062117        7.8281821205
  C        10.4477217695        2.4964527440        9.7413550494
  C         9.0065049799        5.5052301190        9.0467969037
  C         8.1691082354        4.6969419844       10.9730946243
  C         9.4943066061        5.1865278058        7.7917739075
  C         9.9897628132        3.2713141537        6.6615511072
  H        10.1105728314        1.9341029475       10.6450271085
  H        10.8359769645        1.6677536334        9.2073338743
  C        11.5657548030        3.5249556065        9.8680406365
  S         8.5548101152        6.9982860827        9.8835919377
  C         8.1102789997        6.0641544014       11.2527883115
  H         7.9180724525        3.8405443546       11.6387544412
  C         9.9093007149        5.8820582163        6.7137438212
  H         9.9110565250        2.1732854833        6.5514362443
  C        10.3834495143        4.0008726511        5.5783636792
  H        11.3615143009        4.5423061529       10.2210187433
  H        12.0876012664        3.7259542054        8.8885914937
  C        12.6229468343        2.9281357081       10.7825057461
  C         7.7567539797        6.6695122954       12.5877352813
  C        10.3759539447        5.3558617183        5.5449955925
  H         9.9184134858        7.0037609096        6.7219714396
  C        10.7845498018        3.6161044439        4.3502077804
  H        13.6289498956        3.2658337843       10.4852790430
  H        12.6473815472        1.9061396977       10.7354371247
  C        12.3769204083        3.2866533090       12.2459049321
  C         7.5848386283        8.0654259549       12.8403223696
  C         7.2949453419        5.7974398312       13.7098876127
  C        10.9066547321        6.1208068474        4.3868028400
  C        11.1217706433        4.7499217557        3.5928005215
  S        11.0364864913        2.1083401372        3.5613306804
  H        12.6881570556        4.3745757666       12.3225352066
  H        11.3207837237        3.2930282462       12.4950620737
  C        13.1448893387        2.4343177143       13.2157641856
  N         7.7832597580        9.1566515310       11.9114373393
  C         7.2288576708        8.5870473074       14.0847250644
  C         6.9223785805        6.2701283286       14.9582120715
  H         7.3493003208        4.7345198142       13.5359557524
  C        12.2437214368        6.8480492221        4.6390173005
  C         9.8097879909        6.9645170514        3.5508442911
  C        11.4106307647        4.3119661809        2.2581674910
  C        11.4568340247        2.9420059913        2.1563207591
  H        14.1360517787        2.8766504727       13.2734885353
  H        13.0935425914        1.3630836176       12.9220996204
  C        12.4935820814        2.5446374802       14.6181131728
  S         7.5341009800       10.5726889579       12.7093620694
  N         7.2622813057        9.9950258555       14.1547540517
  C         6.9983885255        7.7696121161       15.1852642958
  H         6.7252484332        5.4951671253       15.7066849559
  H        11.9242866252        7.6760437645        5.4135019392
  H        12.3803079849        7.3949112062        3.7087343218
  C        13.2863827070        5.8414813533        5.2365737194
  H         9.5155844416        7.8953704182        4.0888498912
  H        10.2559976204        7.2567469882        2.5957285120
  C         8.4569656110        6.3245257312        3.0823048059
  H        11.5785450626        4.9720403144        1.4765192184
  C        11.6724908387        2.1913282023        0.8934289305
  H        12.1665477537        3.5100976511       14.8798894869
  H        11.5726026260        2.0630480225       14.5062529750
  C        13.4702894735        1.9367833590       15.6746779232
  C         6.8196135437        8.4125133039       16.4800079330
  H        12.8903027886        5.2837612398        6.0750019313
  H        13.5243115210        5.0691676412        4.5142956034
  C        14.5657531742        6.6521247680        5.5806688748
  H         8.0369787538        5.7446020370        3.9334658840
  H         8.5305111338        5.6715973628        2.2198657351
  C         7.4624826236        7.3330241293        2.7569263290
  C        11.7520340308        0.7704586548        0.7333489173
  C        11.9671418271        2.9389620106       -0.4390171383
  H        14.4012485358        2.3883106385       15.4937930538
  H        13.5491409855        0.9492514643       15.4243125233
  C        12.9451249310        2.1493733386       17.1030148467
  H         6.7389327899        9.5006215670       16.4240341602
  C         6.4831115864        7.9763955873       17.7508102432
  H        14.1767108258        7.5389082140        6.1132963716
  H        15.0182917987        7.0252776252        4.6431334743
  C        15.5874403233        5.9204682018        6.5153970922
  H         7.1561428243        7.8723881193        3.6288636270
  H         7.8149033334        8.1008988240        2.0977807493
  C         6.1174565170        6.7884517032        2.2582858365
  N        11.4844399060       -0.1816188636        1.6978247802
  C        12.0489669496        0.1160849625       -0.4758377127
  C        12.1958453053        2.3000764315       -1.6246456139
  H        11.8876221885        3.9906419451       -0.4761106607
  H        12.8852384471        3.2794196237       17.2665214670
  H        13.5632096807        1.6923120207       17.8626682230
  H        11.9896197885        1.7488420475       17.4248246320
  S         6.1031039013        6.4108947831       18.3083932957
  C         6.4105734455        9.0026960962       18.8048217823
  H        15.3553937369        6.0773938504        7.5881325688
  H        15.4875408761        4.9076635152        6.3954947810
  C        16.9558339992        6.3728672471        6.0496488792
  H         5.6980725085        6.2305793911        3.0877409891
  H         6.3762700022        6.0500405758        1.5121188628
  C         5.1860703479        7.7944717998        1.6922541835
  S        11.5420463502       -1.6940078477        1.1943458710
  N        11.9523715853       -1.2921004509       -0.3357107737
  C        12.3603976067        0.8554535817       -1.6825026537
  H        12.2380135801        2.9132056135       -2.5461189052
  C         5.7701713481        7.1380859996       19.8883641109
  N         5.9765168917        8.4537298221       19.9532414987
  O         6.9439112291       10.1000451380       18.7087738987
  H        17.0430222363        5.9667647735        5.0739548528
  H        16.9580958108        7.4285705098        5.8294652999
  C        18.0490468666        5.9641873278        7.1079762895
  H         5.7044618397        8.5441223024        1.1000256428
  H         4.6453106228        7.2190595020        0.8764409683
  C         4.3075005968        8.3245656720        2.8927956622
  C        12.4840276670        0.0402849793       -2.8572723708
  S         5.4334403996        6.1632389063       21.3239010650
  C         5.8788998550        9.0941089435       21.2172285461
  H        17.9182631436        6.6092026860        7.9223065852
  H        18.0010508742        4.9095584875        7.4237472235
  C        19.4591187248        6.2256423089        6.5925025896
  H         4.8652454598        9.1485065349        3.4445453363
  H         4.1166878654        7.5002703084        3.5688231376
  C         3.0060008679        8.8467570156        2.3260132511
  H        12.2370387846       -1.0155464820       -2.6856503387
  C        12.9810049368        0.3671176993       -4.1086004354
  H         4.9746576409        8.8363771071       21.7838695987
  H         5.7977156784       10.0823920278       20.9161656564
  C         7.2376008655        9.0926184296       21.9586118825
  H        20.2330896107        6.5721505026        7.2527471627
  H        19.3956154570        7.1265618512        5.8450019860
  C        19.8467159639        5.0145077124        5.8347627881
  H         2.4844328298        8.0569326209        1.7887392308
  H         2.3367960180        9.2462115107        3.1123620000
  C         3.3604165336        9.9470486241        1.3487909067
  S        13.7528462020        1.8981827533       -4.5623203368
  C        13.0840870531       -0.6947597993       -5.1295644113
  H         7.1453568443        9.7680398639       22.7596252409
  H         8.0578063755        9.4112549029       21.2528494564
  H         7.5149413631        8.1429257762       22.3648719273
  H        20.1782810590        4.2576241783        6.4827112860
  H        19.0362139267        4.6597238349        5.2597253176
  H        20.7211223148        5.2559819436        5.1434113841
  H         4.3398358247       10.3650365897        1.5963264334
  H         3.4157516850        9.6196619219        0.3530400418
  H         2.6617913452       10.7539117397        1.5294802023
  C        14.0466233822        1.1409535070       -6.0871819008
  N        13.8313670828       -0.1899579627       -6.1734602846
  O        12.8943766342       -1.9192596449       -4.9324158457
  S        14.9542561849        1.8654536562       -7.3744130902
  C        14.0667565986       -1.0550749752       -7.3780448481
  H        14.3426910339       -2.0392027619       -6.8721095141
  H        14.8716288397       -0.6270904510       -7.9586757943
  C        12.7987364062       -1.2384334269       -8.1567120417
  H        11.8309426202       -1.2164471569       -7.4968414650
  H        12.7992013180       -2.1398960553       -8.7390945042
  H        12.7259365761       -0.3787055366       -8.8385220100
  H        -3.4490416431       13.2965296739       16.1771217198
  C        -2.4888934775       13.8335107110       16.3605536972
  H        -1.6537373728       13.1175263637       16.2859753780
  C        -2.2536710257       14.7200252504       17.5722836616
  C        -2.4936987145       14.6086202649       15.0310033112
  C        -2.7211202302       14.0695294301       18.7764503693
  H        -1.1352107788       14.8795422625       17.6673464826
  H        -2.6922865447       15.7329961366       17.4249423550
  H        -3.4562189707       14.3975255877       14.4717787162
  H        -2.4025434280       15.6184737680       15.2930395301
  H        -1.6987880638       14.2803681578       14.3495191002
  C        -1.5988773050       13.9954571102       19.7887519151
  H        -3.1350245700       13.0683176151       18.5481237789
  H        -3.6038587675       14.5943334172       19.2755853579
  C        -2.1320462998       13.8281623451       21.2264410586
  H        -1.0440105642       13.0563452977       19.6930341252
  H        -0.9003591276       14.8478074274       19.7992346855
  C        -1.0117249116       13.2342954170       22.1219415184
  H        -2.9709482427       13.0808838863       21.2409441264
  H        -2.4128549759       14.7807049236       21.6112839417
  C         0.1868534668       14.0968791248       22.4332254233
  H        -1.4381661998       13.0006137426       23.1045560461
  H        -0.7428759028       12.2539972351       21.7601887146
  C         1.2986948149       13.3382541781       23.1896025891
  H         0.5366103517       14.5230994393       21.5483375422
  H        -0.1751082737       14.9065478786       23.0464367575
  C         1.6597940577       12.0027054263       22.5927562752
  C         0.7446299102       12.6313756742       24.4473793916
  C         2.6044835964       14.2247182235       23.4095522340
  C         1.3644466329       10.8647896090       23.3536396233
  C         2.0232620550       11.5781703753       21.3158539111
  C         0.8189200500       11.2552033450       24.6021398020
  C         0.1732623311       13.2409238955       25.5314842884
  H         2.9376596474       14.7068053305       22.5039735585
  H         2.3078928100       14.9841399558       24.1659414836
  C         3.7329591179       13.5097593780       24.1439202526
  S         1.5915731911        9.3904209361       22.5867394948
  C         2.1174719874       10.1919252761       21.1897330557
  H         2.1718161881       12.3822459141       20.5873348066
  C         0.4375275179       10.6207619279       25.7174199902
  H        -0.0045469939       14.3221587271       25.4078691582
  C        -0.1192620457       12.5721787661       26.6952573312
  H         4.0959843306       12.6394591085       23.5209995081
  H         3.2723761062       12.9880752373       24.9577435305
  C         4.9706735952       14.3532520031       24.4188810837
  C         2.5193146567        9.3837582865       19.9991418655
  C         0.0113246713       11.2564428825       26.8385235106
  H         0.7416765212        9.6054706513       25.7603400823
  C        -0.4789507609       12.9964137411       27.9296749766
  H         5.6884404174       13.8541060972       25.0755173551
  H         4.5345665255       15.2653006914       24.9075225729
  C         5.7392660859       14.6286254484       23.0746643390
  C         2.5094193708        7.9365086325       19.8323991124
  C         2.8848602440       10.1863687689       18.8169605463
  C        -0.4224444292       10.5589956204       28.1193291951
  C        -0.6654165293       11.9315183471       28.8147299155
  S        -0.7472795446       14.4622734903       28.5665038119
  H         6.5230918028       15.2223530993       23.4054685254
  H         5.1884930620       15.3153172566       22.4420256823
  C         6.3357430314       13.5224258403       22.1992153689
  N         2.1220752719        6.9867054751       20.7866668236
  C         2.7276558026        7.3336966043       18.6076391372
  C         3.1763409392        9.5708121974       17.5648018115
  H         3.0233450683       11.2402068158       18.9065984440
  C         0.7491547845        9.8150241080       28.8477618737
  C        -1.7647040062        9.7489293650       27.8764802258
  C        -1.0942782428       12.3606846765       30.0555716828
  C        -1.1002710148       13.7528910094       30.1401111769
  H         7.3982709409       13.8557889479       22.1765868202
  H         6.3126404395       12.5516694582       22.7367177515
  C         5.7408018557       13.4019787478       20.8510072492
  S         2.1643841178        5.5163024582       20.1132357133
  N         2.4457997351        5.9634702383       18.5600639149
  C         3.0247836544        8.0201532376       17.4454063444
  H         3.5032731839       10.3109809093       16.7932584029
  H         1.0295278352        8.8780110629       28.3438614006
  H         0.4865426634        9.6246325402       29.8729437910
  C         2.0674653315       10.4571108342       29.1290504289
  H        -1.5830936237        8.9934347443       27.1390709554
  H        -2.1349036491        9.2466614590       28.8298891589
  C        -2.9977624800       10.5829612900       27.3806390587
  H        -1.2524443272       11.6330234051       30.7263209099
  C        -1.3708905479       14.5877659427       31.3826769338
  H         4.5974109131       13.5134552918       20.9773951638
  H         6.0062448668       12.4241174361       20.5980842783
  C         6.2402244071       14.3951528347       19.7568421782
  C         3.2484447445        7.2622772752       16.2650385447
  H         2.2267148905       11.1731670205       28.2955952051
  H         1.9929606225       11.0712291506       30.0612254208
  C         3.1931015455        9.3204732026       29.2236862820
  H        -2.5832153233       11.1599061150       26.5717297183
  H        -3.2843428827       11.2374344316       28.2366543557
  C        -4.1063918020        9.7232068220       26.9165629286
  C        -1.3111621828       15.9901509041       31.5218084920
  C        -1.6750430302       13.8512412062       32.6341144735
  H         5.4057187535       14.4054525314       18.9947511840
  H         6.2680329755       15.3186772223       20.2831719106
  C         7.5328975242       14.0529218338       19.1241790974
  H         3.3493933622        6.2031554512       16.3916905411
  C         3.5393932452        7.6396450098       14.9839267367
  H         2.9762336815        8.6495602264       28.4146659781
  H         3.0352354656        8.7065337315       30.1483835230
  C         4.5842472073        9.9217082952       29.2897841997
  H        -3.8821504460        9.0973384798       26.0638632996
  H        -4.4523014711        9.0187937579       27.6574831213
  C        -5.2553935524       10.6627001821       26.4516972882
  N        -1.0765301636       16.8151171118       30.4679130043
  C        -1.6363067163       16.6480539604       32.6543490897
  C        -1.9264930634       14.4964126773       33.8033465327
  H        -1.5148013375       12.7442777096       32.6150530288
  H         7.4057411937       14.3415353844       18.1436062212
  H         8.2376319958       14.7830894026       19.5466693817
  H         7.8353960709       12.9985297241       19.1328177226
  S         3.6553854014        9.2503205046       14.3814368307
  C         3.6607741611        6.5248603176       14.0214735677
  H         4.7275700421       10.7977447171       28.5947478995
  H         4.6844668020       10.3983844917       30.2598882239
  C         5.5897148467        8.7318882534       29.2297965766
  H        -4.8495582257       11.6275818484       26.1878302423
  H        -6.0123885895       10.8951689318       27.2444395266
  C        -5.9526165053       10.2376442391       25.1978859787
  S        -1.2083016203       18.3488256677       30.9015260379
  N        -1.6210836595       18.0296649793       32.4830490944
  C        -1.9153432022       16.0344570405       33.8432967590
  H        -2.0161153859       13.9582007986       34.6611972347
  C         3.9005106958        8.3728275458       12.7918863167
  N         3.7389505733        7.0469772485       12.7941933205
  O         3.2939761885        5.3605444902       14.2892930687
  H         6.5048985189        9.0898508682       28.8308322416
  H         5.2496366687        7.9563623246       28.5638522658
  C         5.9172465190        8.1160210297       30.6245634665
  H        -5.4896162260       10.6919216194       24.3226068096
  H        -5.8590260158        9.1416045189       25.0525116556
  C        -7.3793746300       10.7785867211       25.0345187090
  C        -2.2087578538       16.7447579771       35.0093149239
  S         4.2008879016        9.0863995581       11.1938033202
  C         3.7094641749        6.1359170256       11.6585114523
  H         6.8163515784        8.5103681288       31.0455010497
  H         5.0987482693        8.3742438630       31.2690521572
  C         6.0855948393        6.5325595566       30.5143658279
  H        -7.6758907748       10.8488741768       24.0326833053
  H        -7.3151821174       11.7936497173       25.4221559459
  C        -8.3528712637        9.8479711501       25.7327397711
  H        -2.2629056615       17.8299609104       34.8715340837
  C        -2.7844593427       16.3791654547       36.2074404813
  H         3.8616713565        6.5489159744       10.6885327235
  H         4.4107697519        5.3012689859       11.7368632989
  C         2.2455167907        5.6351305607       11.5056034243
  H         7.0022052577        6.2574630098       29.9774176772
  H         5.2384820927        6.2158773866       29.8659844773
  C         6.0083182225        5.8072349490       31.8124510290
  H        -8.6538705675        9.0211977461       25.0979890352
  H        -7.8433743083        9.4290845794       26.6635974040
  C        -9.6200967498       10.5676983982       26.0889433301
  S        -3.2684124115       14.8110598294       36.7254529630
  C        -3.1268766941       17.4281168806       37.1447305351
  H         1.8329694508        5.4525644892       10.5210324233
  H         2.1847035707        4.7074584391       12.1048955308
  H         1.5905947820        6.2900520950       12.0195336029
  H         6.8781011404        5.2907445100       32.0358722779
  H         5.3547029092        4.9438940933       31.6880545988
  H         5.6496119925        6.4319688869       32.6773902530
  H       -10.2337226646       10.7109781562       25.1910257801
  H        -9.4106894058       11.5598043787       26.5064377218
  H       -10.1824082818        9.9325117251       26.7713132723
  C        -3.8656379872       15.5217386583       38.2144095627
  N        -3.7348032947       16.9266842330       38.2708188737
  O        -2.9914920569       18.6882363597       36.9688642771
  S        -4.6721472577       14.7377450518       39.5948456026
  C        -3.9649703822       17.8204038406       39.4133800040
  H        -4.1239208668       18.8243395956       39.0707787963
  H        -4.8911648017       17.5028029049       39.8786521649
  C        -2.6904639705       17.6402727175       40.3006379180
  H        -1.8759594981       18.1411035113       39.7852455234
  H        -2.8127414069       18.0292891057       41.2194939768
  H        -2.4045467134       16.5937264864       40.5014845315
