352
i=
  H         4.4100369308        2.0268640993       12.1040826578
  C         3.6670624512        2.8060013045       12.1091162660
  H         4.2234969255        3.7043928722       12.2382343840
  C         2.8748866891        2.7976521583       10.8539397793
  C         2.7761297804        2.7432201879       13.3495171089
  C         3.8310090423        3.2315133043        9.6627425898
  H         2.0707587510        3.5147055701       10.8812186182
  H         2.3857171788        1.8111279438       10.6534298415
  H         2.1978962444        1.8106565578       13.4451629323
  H         1.9985918588        3.4197610946       13.3838819172
  H         3.3939922951        2.7786253946       14.2787865431
  C         4.8669793806        2.1381712488        9.3769479829
  H         3.3868443545        3.5717254176        8.7716788997
  H         4.4125998188        4.0375821688       10.0184011506
  C         5.7042401828        2.2519043889        8.1184828521
  H         4.2278620191        1.2813684953        9.1912540398
  H         5.5050497159        2.0579414030       10.2564238572
  C         6.8534579741        3.0563848185        8.5515492862
  H         5.1721604761        2.7421570662        7.3752959330
  H         5.9900338240        1.2730795615        7.7002674096
  C         8.1299219461        2.2720027610        8.7922211627
  H         7.0335872717        3.8254871905        7.7908199586
  H         6.6336299324        3.6109886232        9.4303382640
  C         9.4151724281        3.1400071844        9.1035777356
  H         8.3249702651        1.6885500477        7.9029540690
  H         7.9182928197        1.6295792363        9.6218046902
  C         9.0594778877        4.4138734141        9.8449331190
  C         9.7663158743        3.9049366292        7.8559384737
  C        10.5438887604        2.3344886223        9.8914822405
  C         9.1197785332        5.5138781215        9.0169852388
  C         8.5505636894        4.7965308913       11.0729573760
  C         9.6516478808        5.2110988126        7.7784315012
  C        10.1712389959        3.3479254875        6.6557891294
  H        10.0826829487        1.9597097574       10.7981059312
  H        10.8021138137        1.4790214977        9.3163416074
  C        11.6819355479        3.3509076047       10.2810935520
  S         8.6018570259        7.0025710598        9.6868143125
  C         8.2255200105        6.1311952896       11.1194154609
  H         8.3069850368        4.0066866919       11.7447622672
  C        10.0705584251        5.8647738321        6.6528727894
  H        10.1568294575        2.2964677402        6.6487916862
  C        10.6008655555        3.9226982544        5.5182111693
  H        11.2965769517        4.1290934838       10.9114588135
  H        12.0586184290        3.6802817379        9.3407699116
  C        12.7646681499        2.6958333299       11.1857175706
  C         7.6070019617        6.8814873385       12.2748171423
  C        10.5921983451        5.2841872260        5.5078867270
  H         9.9707592938        6.9340642380        6.6318283888
  C        11.0712039703        3.6043728717        4.2513771415
  H        13.5694794985        3.4552037658       11.3282951890
  H        13.1058017358        1.7960954695       10.5991540681
  C        12.2667582565        2.1795964461       12.5317544312
  C         7.7965926637        8.2729797844       12.6117464351
  C         7.2179127202        5.9512310694       13.3576029037
  C        11.1154680442        6.0388255677        4.3133827486
  C        11.3206369888        4.7469026063        3.5073450809
  S        11.3864416723        2.1252027165        3.4945492793
  H        11.2453130252        2.4000718983       12.5839616400
  H        12.4576932119        1.1467749512       12.5805193610
  C        12.8721756977        3.0024103576       13.6568170902
  N         8.1345566996        9.3192407077       11.7746731006
  C         7.5776619072        8.7259796951       13.8902526359
  C         7.0150717170        6.4402956176       14.6835232677
  H         6.9802184251        4.9239516260       13.1606009735
  C        12.4525467145        6.8481629001        4.4867730521
  C         9.9732740836        6.8603526504        3.5735699920
  C        11.5869902945        4.3811751613        2.1525206651
  C        11.6154138456        3.0371735222        2.0086167959
  H        12.0428779379        3.4362021375       14.2507376756
  H        13.3508806013        3.8164734778       13.1762761102
  C        13.8654816738        2.2610882196       14.5288367645
  S         8.1593092510       10.6678903980       12.6472733767
  N         7.7677564919       10.0988554648       14.0783315666
  C         7.1982158472        7.9145328998       14.9724203914
  H         6.5826155631        5.7975571782       15.4107419581
  H        12.2819754702        7.8065520403        5.0359758866
  H        12.7777184191        7.0881366325        3.4430938090
  C        13.6674516730        5.9743037382        4.9680581597
  H         9.6930593994        7.7198589755        4.2311763437
  H        10.3809555642        7.3781987658        2.6739871975
  C         8.7431715862        6.0844683543        3.0834924151
  H        11.6870064190        5.1542511014        1.3570018293
  C        11.8172845975        2.3323598221        0.6732986293
  H        14.4365156201        1.5599712087       13.9191885714
  H        14.5989370428        2.9836501742       14.7752041412
  C        13.1651393079        1.6053231595       15.7216027887
  C         7.0741406063        8.5055845383       16.2916784859
  H        13.4717069761        5.3953004356        5.8102453253
  H        13.9081234620        5.3204975634        4.1002321167
  C        14.9753799408        6.7740474805        5.0542237546
  H         8.1481835977        5.8578286405        3.9798892828
  H         8.9595770043        5.1393649803        2.5993292508
  C         7.9021665856        6.8819980442        2.1666369113
  C        12.0266434054        0.9231037546        0.5060648459
  C        12.1270912937        3.1416809016       -0.4715457564
  H        13.6325515402        0.7802220440       16.1204554317
  H        12.2075057690        1.2825323021       15.3012383466
  C        12.8330109983        2.6319196877       16.9065765338
  H         7.3940565898        9.5200697199       16.2761381852
  C         6.6583054770        8.0091173923       17.4942073015
  H        15.1210192180        7.1560409748        6.0774623189
  H        15.0334879608        7.5425221073        4.3157466757
  C        16.0889322099        5.7724482512        4.9092716691
  H         7.6980828825        7.8375799046        2.6181066021
  H         8.4069340869        7.1778030470        1.2603470501
  C         6.7004914306        6.0896929456        1.8855726498
  N        11.8597917039       -0.0547387894        1.5325403341
  C        12.4070399095        0.3347459235       -0.6707215916
  C        12.5120269993        2.5593260535       -1.7106893107
  H        12.0663344965        4.2162184513       -0.3791877399
  H        13.7156551707        2.9991414309       17.4273992780
  H        12.0850839924        2.2961074003       17.6384028457
  H        12.4450728132        3.5508975805       16.3979363596
  S         6.0247831514        6.4205375483       17.9026855903
  C         6.7383227456        9.0165571282       18.6038836957
  H        15.7335567560        4.9326323536        5.4479167145
  H        16.0416277863        5.5640149843        3.8185988321
  C        17.5168591326        6.2123386944        5.4283921269
  H         6.2014019053        6.1134250168        2.8658206681
  H         6.8031593908        5.0015312339        1.7697076866
  C         5.7731244112        6.7468332352        0.8297917280
  S        12.0861875918       -1.4785133983        0.8688267893
  N        12.3706703462       -0.9865573435       -0.6235613533
  C        12.6841404927        1.0985562759       -1.8269093914
  H        12.6393014676        3.1822882455       -2.5931531740
  C         5.9711087972        7.0995127166       19.5689128595
  N         6.2908232285        8.4268288269       19.7120801705
  O         7.0040469083       10.2192934377       18.5128001988
  H        18.3058388437        5.7304084401        4.8604446143
  H        17.6225805382        7.2670032729        5.2550973398
  C        17.6606615991        5.7435987349        6.8410279872
  H         6.4309663043        7.1468043875        0.0979284159
  H         5.0636883050        6.1045905800        0.2532496629
  C         5.0463535383        7.9072673785        1.5455089665
  C        12.8994236915        0.3472609340       -3.0534664988
  S         5.5230227726        6.1394256117       20.9794171609
  C         6.1508601270        9.1333559135       21.0129760510
  H        16.6864563926        5.9021691232        7.4207374591
  H        17.8264685700        4.7230504339        6.7241510622
  C        18.8655660142        6.3292466464        7.5678485572
  H         5.6876805100        8.3509549526        2.3258805511
  H         4.1905550575        7.5186153688        2.0584076770
  C         4.5744521244        9.0351710035        0.6332880043
  H        12.8588184849       -0.7206568054       -2.9232444756
  C        13.3316774098        0.7327290857       -4.2598641831
  H         5.5185335901        8.6297526178       21.7376442915
  H         5.5904304955       10.0893965330       20.8774101190
  C         7.5208081384        9.2782065764       21.6434522125
  H        19.0541971038        5.6091417209        8.3690191457
  H        18.5439176533        7.2744425503        7.9632245504
  C        20.1047905197        6.4487107311        6.6952364306
  H         5.1165087250        8.8654868217       -0.2929691822
  H         3.5096725469        8.8483585767        0.5277699076
  C         4.9217941993       10.3940400836        1.1128698276
  S        13.7273977444        2.3143407840       -4.8884728714
  C        13.4591534170       -0.3311110509       -5.3654711518
  H         7.8923435434        8.3298811651       21.9457979807
  H         7.5423562606        9.8665315239       22.5402305669
  H         8.2841234923        9.5747805739       20.9694248124
  H        20.2096781451        5.5466241935        6.0860026679
  H        19.9036205730        7.3646282023        6.0800995326
  H        20.9628316787        6.6356010631        7.2905217227
  H         5.9884725485       10.4311548067        1.3042063732
  H         4.7800440424       11.1229097321        0.3297638677
  H         4.4101109185       10.7540937743        2.0266558602
  C        14.2264546245        1.6318458699       -6.3281908396
  N        14.0769866842        0.3016329428       -6.4447450438
  O        13.3451358536       -1.5598381809       -5.1730821932
  S        14.9766854769        2.3866105699       -7.7114696749
  C        14.3511066731       -0.4916702163       -7.6688171927
  H        14.8484434785       -1.4288534585       -7.3975191731
  H        15.0778585881       -0.0331410588       -8.2218926497
  C        12.9774821802       -0.7090073265       -8.4568103002
  H        12.9317551926        0.1397608725       -9.1900065576
  H        12.0353375963       -0.5954071048       -7.9540009564
  H        12.9374456594       -1.6742393991       -8.9696986496
  H        -3.5868281753       15.1677553393       15.8871630924
  C        -3.3031535421       14.1270602356       16.0025336226
  H        -4.2168734888       13.6409202116       16.3382229423
  C        -2.2403323764       14.2094175994       17.0934121189
  C        -2.9049148265       13.4795025877       14.6638426458
  C        -2.8613855759       14.0737200262       18.4006141063
  H        -1.4945746875       13.4884014089       16.9521148234
  H        -1.7552677142       15.1567670467       17.0105706261
  H        -1.8863420732       13.2414001526       14.6541854519
  H        -3.4848382398       12.5523604409       14.3697552447
  H        -3.0318163893       14.1320562044       13.8267404043
  C        -1.9151368722       13.6253448195       19.5030858108
  H        -3.5102957677       13.2544029763       18.3917443961
  H        -3.3572179947       14.9039329173       18.8027740642
  C        -2.3846363094       13.8132428309       20.9816932199
  H        -1.7157530902       12.5512331242       19.4044025318
  H        -0.9156582574       14.1147236503       19.3870828943
  C        -1.2757416912       13.1841511907       21.9288392422
  H        -3.3003764843       13.3556877997       21.2372389102
  H        -2.6678593875       14.8153785563       21.3396487111
  C         0.0070577821       14.0881478302       22.1217514329
  H        -1.6397045845       12.7525427035       22.8740358681
  H        -1.0219718106       12.2644884677       21.4103660791
  C         1.1993365557       13.3765148466       22.8338394535
  H         0.4233318189       14.3777156909       21.1462094754
  H        -0.2844957631       14.9496504312       22.6114157849
  C         1.5131462543       12.0734737676       22.0995160764
  C         0.7014047619       12.6821055290       24.0341484905
  C         2.3902495339       14.3168489095       23.0655979040
  C         1.3310803827       10.9593755731       22.8926873028
  C         2.0205169524       11.6313378465       20.8007328211
  C         0.8879351066       11.3525860341       24.1631258420
  C         0.3243816010       13.3444683860       25.2233654413
  H         2.3944129262       15.0360561485       22.2714336407
  H         2.2827994167       14.9569604973       24.0206277148
  C         3.7253705744       13.6139680342       23.1669992890
  S         1.7188278954        9.4275446972       22.1636517461
  C         2.1778044297       10.2941052968       20.7120091420
  H         2.3659242672       12.3394872162       20.0487567516
  C         0.5281543751       10.7166089102       25.3177340737
  H         0.4455037226       14.4600695849       25.2458532638
  C        -0.0791858322       12.6921151857       26.3079319822
  H         3.9967116125       13.2018449590       22.1384636961
  H         3.6107425920       12.7241741740       23.7531946023
  C         4.9537012961       14.4321250412       23.6339913752
  C         2.8142099493        9.6023394583       19.5347715909
  C        -0.1033747068       11.3624645899       26.3843701329
  H         0.5824670763        9.6527530841       25.3436842951
  C        -0.4868584761       13.0868602296       27.5795939089
  H         5.4361320012       13.9769792192       24.4898408521
  H         4.7470544433       15.4166049790       24.1098953099
  C         5.9774982914       14.7750551419       22.5191279564
  C         2.6826088231        8.1376232605       19.2546674719
  C         3.4357382656       10.3293288073       18.3935910303
  C        -0.5371585625       10.7190663972       27.6243054855
  C        -0.7899626006       12.0126548359       28.3290380134
  S        -0.7505725352       14.6435699938       28.4390236389
  H         6.6189709654       15.5734375174       22.7202686072
  H         5.4729773637       15.3705912242       21.8090027390
  C         6.7790698528       13.5699204687       21.9495481518
  N         2.2206902541        7.2470870169       20.1507403572
  C         2.9570130964        7.6074936669       17.9678010173
  C         3.8519553065        9.7333614426       17.2097858917
  H         3.4743698330       11.4388725699       18.5239106022
  C         0.5405651275        9.8743269806       28.4007131464
  C        -1.8738255564        9.9037159106       27.5561786885
  C        -1.2555558512       12.3732474345       29.6122090704
  C        -1.2761914329       13.7508979106       29.8321876700
  H         7.8563631594       13.6705986429       22.0752766081
  H         6.5797844131       12.7385892209       22.5770012007
  C         6.3224798355       13.2648293271       20.5337501389
  S         1.9169556716        5.8272346493       19.3065126110
  N         2.4500855048        6.2882813191       17.8071616630
  C         3.5198973021        8.3422000970       16.9057949276
  H         4.2967754817       10.3847597618       16.4746792442
  H         0.8230554524        9.0067047518       27.7947239529
  H         0.2865912265        9.5078081885       29.4048873326
  C         1.8180432390       10.6873588886       28.7085438970
  H        -1.8250895620        8.9964903583       27.0153304058
  H        -2.1966932625        9.3891428673       28.5107173181
  C        -3.1330448662       10.8239096417       27.2387588837
  H        -1.5288449557       11.5749442898       30.3127125212
  C        -1.6081010053       14.4411828155       31.1751227160
  H         5.4859476089       13.8457495769       20.2336081813
  H         6.0607491458       12.2417823332       20.3798432662
  C         7.3555170548       13.5640711917       19.4314404957
  C         3.7309302410        7.7690044055       15.6195509522
  H         2.2356812404       11.0535226345       27.7639745840
  H         1.5607533969       11.4704277820       29.3250725793
  C         2.8704185588        9.7312570941       29.3479122967
  H        -2.8723221183       11.5006875764       26.4355409426
  H        -3.4792729985       11.4570598378       28.0582702843
  C        -4.3332591868       10.0304330554       26.8111889990
  C        -1.7240802886       15.8044940461       31.4240441580
  C        -1.8400922051       13.5621006010       32.3599743246
  H         7.7614069112       14.5583571083       19.5807121934
  H         8.1828565084       12.8208112192       19.3440715236
  C         6.5531657002       13.6744099028       18.1445189751
  H         3.5063058962        6.7159391951       15.5971458946
  C         4.0492945371        8.2790972091       14.3804450481
  H         3.0391290192        8.8885243447       28.7093573961
  H         2.5154968025        9.3689568149       30.2628842824
  C         4.1782056150       10.4116733075       29.7429488739
  H        -3.9992711222        9.1496110816       26.1734994339
  H        -4.9096338683        9.7799369201       27.6791336836
  C        -5.3559720604       10.9025585324       26.0743690628
  N        -1.4285321608       16.7990625375       30.5046096033
  C        -2.1185441741       16.2980604161       32.6550963975
  C        -2.1777516703       14.0358811801       33.6453392491
  H        -1.6915377525       12.5570882723       32.2721605225
  H         5.8704962883       14.5275076111       18.1719913555
  H         7.1740354248       13.8776681888       17.2732744009
  H         6.0299321928       12.7596887991       18.0773233388
  S         4.3410900497        9.9372321626       13.8600178149
  C         3.9704164480        7.3289569364       13.2599190377
  H         4.2003346571       11.4556881930       29.4292085608
  H         4.2216248966       10.3551499779       30.8082027809
  C         5.3407282164        9.6534862535       29.1712971382
  H        -4.8763765874       11.1056766321       25.1157356163
  H        -5.6141009921       11.8051363503       26.6423122082
  C        -6.4876772323       10.0686551288       25.6689541969
  S        -1.6267055881       18.2775376770       31.2309601052
  N        -2.1699743183       17.6990256511       32.6900716017
  C        -2.3931975742       15.5118148305       33.7947835135
  H        -2.3754003786       13.3499443068       34.4020664011
  C         4.4924071841        9.2897684579       12.2410850990
  N         4.2968532466        7.9327955001       12.1116385408
  O         3.9305447598        6.1034102764       13.4314055934
  H         5.9332673598       10.5210587660       28.8402508219
  H         5.1368564613        9.0325440914       28.3179003793
  C         6.1585599515        8.8812234353       30.1296456679
  H        -6.2257872040        9.0941423564       25.2451030116
  H        -7.0578331013        9.8770613805       26.6137715745
  C        -7.5361989700       10.7052041151       24.7721006375
  C        -2.8254860720       16.1276736885       35.0054398807
  S         4.8361676608       10.2324593053       10.7915211685
  C         4.1810465064        7.1813875248       10.8673015374
  H         7.0982952429        8.7120768507       29.6086997402
  H         6.2370986902        9.5105080896       31.0315989847
  C         5.5720937149        7.5149378851       30.4688526705
  H        -7.1543447554       10.7796792461       23.7972374250
  H        -7.5726421736       11.6882203336       25.1401229850
  C        -8.9265532119        9.9702018301       24.6154729145
  H        -2.4769413481       17.1850431859       35.0852870995
  C        -3.2863643049       15.5669579802       36.1503030588
  H         4.9970512053        7.5582347638       10.2215058229
  H         4.3758481159        6.1412896017       10.9854283470
  C         2.7397902628        7.3178834009       10.3202162120
  H         5.1547644245        6.9455225850       29.5984132586
  H         4.6906893954        7.8030271040       31.0734410041
  C         6.4690756906        6.5856093563       31.3318896263
  H        -9.3578785631       10.2604215771       23.6378756016
  H        -8.7926412615        8.9031729055       24.5343312800
  C        -9.7835527026       10.2346748458       25.8869370140
  S        -3.7062563356       13.8919468939       36.3835927876
  C        -3.6978922510       16.4874078220       37.2725865867
  H         2.6264905124        6.9214114851        9.3153209818
  H         2.0752874178        6.7440927176       10.9264373445
  H         2.4337007438        8.3729499493       10.3631041625
  H         6.9619329192        7.0903414876       32.1666590119
  H         7.2313036842        6.1106736645       30.7490766619
  H         5.9118222156        5.7982394245       31.7299253355
  H        -9.2389955501        9.8315405363       26.7575111805
  H       -10.6339801462        9.6154240718       25.6001445359
  H       -10.1460422681       11.2496678477       25.9942742352
  C        -4.2517345238       14.4211017442       37.9836985066
  N        -4.2760012311       15.7607006848       38.2159089840
  O        -3.4561183032       17.7036993113       37.2576325009
  S        -4.9852360946       13.4155405367       39.2352599081
  C        -4.6432062982       16.4008456533       39.4122285810
  H        -5.0024056670       17.3880271138       39.2042307308
  H        -5.5619733780       15.9653558197       39.9103605034
  C        -3.4464776978       16.5152275889       40.3763907803
  H        -2.7944737755       17.3731754324       40.1396399477
  H        -3.8050884778       16.6518515104       41.4300789787
  H        -2.8859789594       15.6040207866       40.2487478286
