352
i=
  H         4.8063261746        1.6319224969       12.9249100763
  C         4.2146627555        2.5402562643       13.0501841903
  H         5.0695405846        3.1816955865       13.0540612282
  C         3.3460389445        2.7749197778       11.7740804368
  C         3.4756099326        2.4656351689       14.3644859664
  C         4.2116537682        2.9137366712       10.4885498818
  H         2.6360345815        3.6383010348       11.8833290300
  H         2.8654649078        1.7829297325       11.6935082612
  H         3.0769445506        1.4225085967       14.5572503598
  H         2.6396924138        3.1360765915       14.5105261262
  H         4.0329074487        2.6437614003       15.2489492103
  C         4.9568002290        1.6332886576       10.1067863899
  H         3.4779077430        3.4264615681        9.8269651488
  H         4.8945894787        3.7432190293       10.5734327492
  C         5.5836751265        1.7385964599        8.7276171521
  H         4.3839671281        0.6867065997       10.2218809697
  H         5.8042775989        1.4705190628       10.8349595419
  C         6.7248780540        2.7671464681        8.5421535941
  H         4.8788155417        2.0456745661        7.9853638664
  H         5.9666062603        0.7341536698        8.5523246174
  C         8.0400929720        2.1444234104        8.9213526298
  H         6.5871207668        3.0374615002        7.4699746576
  H         6.5125751532        3.7314479683        9.0664766165
  C         9.3255858707        2.9692642854        8.9590743789
  H         8.3282414324        1.2043624479        8.2907625348
  H         7.9132591413        1.8110482738        9.9457500877
  C         8.9297412932        4.3104101209        9.6202052579
  C         9.7292445112        3.7134896833        7.6364946967
  C        10.5256142756        2.2923281572        9.7377433752
  C         9.1722704415        5.4230911109        8.8003311828
  C         8.5149855920        4.7321280722       10.8926973420
  C         9.5842820988        5.0251817497        7.5436325253
  C        10.1781621134        3.0297656357        6.5112748116
  H        10.1221989847        2.0805555660       10.6927676586
  H        10.8131310826        1.2386597561        9.4598914187
  C        11.7872615914        3.0820431443        9.9717345282
  S         8.7500062773        6.9613544940        9.5569169037
  C         8.3637109416        6.1235013606       11.0282436978
  H         8.4674602768        3.9861448386       11.6051622335
  C         9.9278775948        5.5632411618        6.3765678098
  H        10.2346798196        1.8873338553        6.5488595388
  C        10.3643210277        3.5959967136        5.3176347226
  H        11.5779017353        4.0956519383       10.2095740102
  H        12.2717608455        3.1097020232        8.9746795611
  C        12.7978470006        2.6794273627       11.0321915549
  C         7.8607725246        6.8140931809       12.3202306397
  C        10.3386954553        4.9469407294        5.2108543211
  H         9.8561455732        6.6253242272        6.3383670200
  C        10.8183499209        3.1097930647        4.1067575144
  H        13.5883022304        3.4425722122       11.1458435805
  H        13.3208215788        1.7108641555       10.8276714932
  C        12.1800027231        2.6589416571       12.3899846007
  C         7.7909530188        8.2345244277       12.6310013666
  C         7.3451092932        5.8320988727       13.3286325546
  C        10.6963095648        5.5347601909        3.9450175068
  C        10.9484664253        4.1699502618        3.2533407977
  S        11.0761546602        1.6055462467        3.4672579637
  H        11.8248049580        3.6481839529       12.6099143025
  H        11.3307608055        2.0144451043       12.5064179376
  C        13.2725187002        2.2756878732       13.4932786377
  N         8.0013803410        9.2535107649       11.7509707989
  C         7.4197292666        8.6850050591       13.8478641642
  C         6.8902572453        6.3712216868       14.5014914851
  H         7.6408060906        4.7753347391       13.4323317169
  C        11.9069923473        6.3684368931        3.9182216616
  C         9.4834928882        6.3102172451        3.4058100263
  C        11.1831918047        3.7044581953        1.9537582122
  C        11.3973953974        2.3686196139        1.9350088578
  H        13.8012314788        3.2254292425       13.6289178124
  H        14.1026551019        1.7254676016       13.0730754855
  C        12.5340334952        1.6669916846       14.6555516864
  S         7.6121600496       10.6810171914       12.4281544980
  N         7.4019589440       10.1171061379       13.9085687111
  C         6.9991860385        7.8742042969       14.8761278992
  H         6.4965793678        5.7145609300       15.2520747713
  H        11.7072348883        7.3365038230        4.4402715114
  H        12.1422986921        6.7366697690        2.8995330651
  C        13.1777189584        5.6521748989        4.3600217148
  H         9.2471309991        7.0091105296        4.0371577876
  H         9.8286032290        6.8322641838        2.4505532592
  C         8.2028287119        5.4876209270        3.1768398391
  H        11.4259151830        4.4151002736        1.1050656117
  C        11.6944504752        1.5764452005        0.6821838917
  H        11.4718559719        1.9343011634       14.7743568084
  H        12.4938660131        0.5346788169       14.5632084104
  C        13.2284068381        2.1881665351       15.9326734617
  C         6.6998477603        8.3811730195       16.1544022943
  H        13.0737865080        5.0939158686        5.2477607536
  H        13.4547986720        5.0295248180        3.5304670242
  C        14.4033825483        6.4763274254        4.6805649037
  H         7.9885071551        4.9904387561        4.0629208741
  H         8.2744473390        4.7688390812        2.2977762177
  C         7.0023073731        6.3960878756        2.8987966138
  C        11.7148187457        0.1930230855        0.4673919581
  C        11.7940179712        2.4084654742       -0.5802571240
  H        13.6206631064        3.2128948451       15.9183282704
  H        14.0356329433        1.5445142489       16.1520920231
  C        12.3092093679        2.3001309917       17.1304259253
  H         6.8353683555        9.4345869848       16.2083813946
  C         6.4371967407        7.8551364649       17.3529989162
  H        14.0935595578        7.0671530658        5.5029633096
  H        14.5873272891        7.2516579183        3.9498668181
  C        15.5848205795        5.6645942756        4.9388203758
  H         6.6602231114        6.8678814474        3.8084529838
  H         7.4209196606        7.2680845432        2.3272690401
  C         5.8777481761        5.7892930749        2.1141409080
  N        11.6870791521       -0.7621674331        1.5167643616
  C        12.0640605353       -0.3860821331       -0.6855886043
  C        12.0956917655        1.7781401782       -1.7358366452
  H        11.7872904993        3.4255599185       -0.5952998578
  H        12.0200167592        3.4333115129       17.2522793750
  H        12.6207312594        1.9536795177       18.0957610200
  H        11.5324959991        1.6973018628       16.8439929186
  S         6.2074349473        6.2460381010       17.7138182266
  C         6.4521538044        8.8392078651       18.5456563929
  H        15.4048013710        4.6452552673        5.2161317636
  H        16.2765752774        5.6767068836        4.0707780442
  C        16.3406811887        6.3409588476        6.1287585689
  H         5.3647505431        5.0965464018        2.7570812033
  H         6.2372306502        5.2740411297        1.2020161635
  C         5.0299668224        6.8959338347        1.4273919522
  S        12.1777892943       -2.1560746491        0.9284356707
  N        12.2345953778       -1.7375490539       -0.6500370505
  C        12.3082130923        0.3341662441       -1.8531400891
  H        12.0587536581        2.3684598587       -2.6523952189
  C         6.0441155719        6.7823636305       19.3882307751
  N         6.1753867606        8.1388551536       19.6882131340
  O         6.6161745122       10.0250230982       18.4481345869
  H        16.8884638548        7.1942268013        5.8870140256
  H        15.6568686976        6.6840094476        6.9380973201
  C        17.3154969112        5.3364340994        6.7394347573
  H         5.6764167890        7.4202330824        0.6979421184
  H         4.3563208613        6.4944183641        0.7715306791
  C         4.3730740523        7.9768574713        2.2938414893
  C        12.5712156939       -0.2838199537       -3.0769716446
  S         5.4351638934        5.6881642062       20.6835249333
  C         6.1850397874        8.6093013342       21.0530162187
  H        16.7532545741        4.8814087799        7.5739872600
  H        17.5323519643        4.4680357987        6.0930292922
  C        18.6081180872        5.9453770628        7.2220914074
  H         4.8922778617        8.3707380429        3.1899278004
  H         3.5344817175        7.5793328868        2.8526672842
  C         3.9527696298        9.1372819187        1.4846383378
  H        12.7932970194       -1.3315559391       -3.0052389472
  C        13.2306751265        0.1502921498       -4.2155950061
  H         5.7125037263        8.0054426157       21.8508137243
  H         5.5678747698        9.4502823435       21.0588249758
  C         7.6726005583        8.9606107072       21.3863046796
  H        18.9451859097        5.4662388214        8.0667840832
  H        18.3706994247        6.9297985333        7.4584299767
  C        19.7463353364        5.8333054417        6.1522017825
  H         3.9176171683        8.9581000886        0.4047815472
  H         3.0063617668        9.5740626153        1.7881099977
  C         4.9565980547       10.2926848976        1.5296939312
  S        13.6373933457        1.7071326741       -4.6222720380
  C        13.4690604064       -0.9145732111       -5.2059927380
  H         7.7677077362        9.3464911643       22.4323366087
  H         8.1559908401        9.4690518266       20.6350747536
  H         8.2997662251        8.0780290143       21.2609538053
  H        19.4396036659        6.4402614299        5.2647375989
  H        20.7302367324        6.2605910258        6.5885776027
  H        19.9133639795        4.7627039163        5.8556369666
  H         5.1861985852       10.6716616543        2.5163227677
  H         5.8568412124        9.8408098827        1.0240516324
  H         4.7852517722       11.0733418358        0.8487848658
  C        14.2343434301        1.0047268931       -6.1575535210
  N        14.1181707020       -0.3600525028       -6.2281519115
  O        13.1791233158       -2.0689417220       -5.0997258803
  S        14.8764374026        1.7333207907       -7.5773429930
  C        14.2464168500       -1.1430792114       -7.4536629241
  H        14.5855331626       -2.1700892087       -7.1837052727
  H        14.8829755272       -0.7583295967       -8.2750074646
  C        12.7886605870       -1.2344033114       -8.2214670137
  H        11.9006113432       -1.4625339282       -7.6393617518
  H        12.8610574597       -2.0727693993       -8.8685369845
  H        12.6477305667       -0.2562269236       -8.6839725279
  H        -3.6167767949       15.2443158735       15.9358016749
  C        -3.2629230277       14.2217668262       16.1838582946
  H        -4.0381732266       13.5504393857       16.5892629062
  C        -2.2631966047       14.3446099252       17.3051510434
  C        -2.7016810204       13.6112878704       14.9011986757
  C        -2.8310145839       14.1207482006       18.8100986921
  H        -1.5455305173       13.6400806062       17.0796691738
  H        -1.8314241074       15.3730690815       17.2957652933
  H        -3.4222212989       13.7285533353       14.0986328902
  H        -1.8846873065       14.2675635059       14.4394688865
  H        -2.3970351101       12.5573936146       14.9827952388
  C        -1.7105054077       14.0104280969       19.8213833196
  H        -3.4946579413       13.3603113543       19.0068088779
  H        -3.4831638016       14.9811573416       19.0595643229
  C        -2.2244662323       13.7183633704       21.2620272224
  H        -0.9967107722       13.3520540225       19.4096389111
  H        -1.1374767033       14.9714423606       19.7876236065
  C        -1.1800705113       13.0479087938       22.0357302571
  H        -3.2190783028       13.1226463603       21.0813398305
  H        -2.4292527655       14.7572375930       21.5679567246
  C        -0.1086609986       13.9438170558       22.5122012856
  H        -1.7026357387       12.5887263911       22.9400947048
  H        -0.8385083692       12.2544979079       21.3653822155
  C         1.0512377858       13.1164038173       23.2770913330
  H         0.3063133457       14.6864842196       21.8756728692
  H        -0.5593025559       14.5313648258       23.2262784328
  C         1.4742761841       11.7238111376       22.6218504283
  C         0.5672352954       12.3742361807       24.4712215756
  C         2.3557110105       14.0372025442       23.5378710635
  C         1.1819826850       10.6234192794       23.3868620207
  C         2.1392717894       11.3504413600       21.4665234881
  C         0.6609147600       11.0614343922       24.5880616103
  C         0.0842735898       13.0852936963       25.5957346711
  H         2.5412553021       14.7363373042       22.6978255573
  H         2.0979526916       14.5721431333       24.4316946918
  C         3.6273617206       13.2098438734       23.8682935437
  S         1.4740629647        9.1623901914       22.6869487047
  C         2.1711859233        9.9745028953       21.3667580365
  H         2.2904300080       12.1059178594       20.7073889040
  C         0.4787965366       10.4319355356       25.7764962291
  H         0.0636307715       14.1421586703       25.5875666622
  C        -0.1444979213       12.4994350364       26.7843663783
  H         3.6641515221       12.2325460113       23.4307033764
  H         3.4716973933       12.8884723072       24.8554320600
  C         4.9188842005       14.0208691579       23.9192987323
  C         2.5890471625        9.2005031775       20.1695569977
  C        -0.0632311504       11.1342949790       26.8962544754
  H         0.7467953939        9.4183899787       25.8114694144
  C        -0.5551433959       12.9165680139       28.0212736012
  H         5.7224048426       13.6361295606       24.5554495148
  H         4.7337848084       14.8953050534       24.4312516342
  C         5.5279687372       14.2792645398       22.5800503107
  C         2.5104761002        7.7881877048       19.8622904719
  C         3.0173488745        9.9797983777       18.9739488100
  C        -0.5526807537       10.5233742807       28.1910326965
  C        -0.8004727658       11.8863746247       28.8184255419
  S        -0.8638228504       14.4474574620       28.7409186152
  H         6.3821103859       15.0327231932       22.6470219443
  H         4.8115673680       14.4465287071       21.8287927554
  C         6.3105068157       13.0296721003       22.0934446746
  N         2.1974299205        6.8452177277       20.8227531674
  C         2.7233996744        7.2380705605       18.5991234589
  C         3.3053403322        9.4318889027       17.7272482969
  H         3.3493484570       11.0290706270       19.1982213645
  C         0.4331676027        9.7351238887       29.0275484784
  C        -1.8340175089        9.6893690284       27.8348428034
  C        -1.1548242993       12.3354831357       30.1142642907
  C        -1.3188711315       13.6575646123       30.2072426085
  H         7.2598860881       12.8406683634       22.5771847982
  H         5.8247369063       12.1567430941       22.4358558970
  C         6.3706134744       12.8364974665       20.5769550071
  S         2.1071120153        5.3986683330       20.1446585675
  N         2.4663951497        5.8520005335       18.5677621110
  C         3.0638040147        7.9445002474       17.5063798630
  H         3.7231102660       10.1112038911       16.9881440567
  H         0.8573248059        9.1225639755       28.2966782366
  H         0.0711619768        9.0810288621       29.7972609531
  C         1.5681008039       10.4957716939       29.6835197766
  H        -1.4990408820        8.9103593371       27.1539024981
  H        -1.9921037747        9.1690150660       28.7737392336
  C        -3.0588300978       10.5643047298       27.4908320038
  H        -1.1792573893       11.6444981800       30.9678716774
  C        -1.6789043117       14.4690883229       31.5023884002
  H         5.4597881914       13.1734044944       20.0174357420
  H         6.2761141261       11.8370057106       20.3707255338
  C         7.7105303296       13.3296018570       19.9698379312
  C         3.1331348755        7.4023553810       16.2053241444
  H         1.9641683129       11.1452362464       28.9071986356
  H         1.2372048668       11.0467698324       30.6003377846
  C         2.7177523150        9.5714864490       30.0050047887
  H        -2.9159073923       11.2033040339       26.7191498065
  H        -3.2759753032       11.3191491702       28.2920253719
  C        -4.2258981216        9.6639823006       27.2164672029
  C        -1.7966872609       15.8809918201       31.6488146887
  C        -1.9964008292       13.7183940780       32.7496867001
  H         7.8439731651       14.2726653446       20.5209623164
  H         8.5090512021       12.6146363069       20.0366061371
  C         7.5856568803       13.5751639989       18.5331944703
  H         2.8910852825        6.3920316566       16.2516874594
  C         3.4801572673        7.8559948779       14.9874054756
  H         2.9346817010        9.0398135651       29.1171407510
  H         2.3346808641        8.7708123875       30.7172302868
  C         3.8432817824       10.3138269559       30.6753609341
  H        -3.9392721470        8.8983167325       26.4705717260
  H        -4.5835785805        9.1120149753       28.1196018362
  C        -5.4249084314       10.6277481197       26.8252602438
  N        -1.4012168244       16.7390891792       30.6546884732
  C        -2.1033956133       16.4788276340       32.8344619183
  C        -2.2769040560       14.3091570974       33.9845271192
  H        -2.0432588446       12.6694635841       32.5714360349
  H         6.8705045227       14.3169680189       18.3323049895
  H         8.5504482466       13.8638065584       18.0502065203
  H         7.2589669811       12.5681469358       18.0233299090
  S         3.7857324491        9.4879492470       14.4083208847
  C         3.4041217199        6.8281318784       13.9156635626
  H         3.9874683592       11.3328639653       30.3237842522
  H         3.7696455194       10.1841668181       31.7522630898
  C         5.1979483925        9.7254383578       30.3156283621
  H        -4.9839173754       11.4312938219       26.1578723119
  H        -5.8038327627       11.3156131474       27.6905082246
  C        -6.4764869028        9.8324169904       26.0773214305
  S        -1.6798680843       18.2558469668       31.2189818405
  N        -1.8799832699       17.9045160468       32.7829404925
  C        -2.3215038730       15.7941960279       34.0363116182
  H        -2.3497628463       13.8012233900       34.8667498349
  C         3.6677868457        8.7899123981       12.8184186303
  N         3.7273653315        7.4758104232       12.6886772759
  O         3.1339013205        5.6527860224       14.0483816037
  H         5.8154577258       10.5476187423       30.7086121032
  H         5.4486646198        9.7832264964       29.2432587855
  C         5.5087261682        8.3343189950       30.8286542873
  H        -5.8449729717        9.3923297423       25.3013862443
  H        -7.0910914291        9.0486855164       26.4741097488
  C        -7.2782967605       10.8538986661       25.2946739878
  C        -2.4002409453       16.4733827745       35.2919143231
  S         4.1873372882        9.7096822616       11.3978636772
  C         3.8702029900        6.7319580224       11.4394778260
  H         5.8024813675        8.3596192718       31.8632925624
  H         4.5497674385        7.7613983573       30.8287057869
  C         6.5591982040        7.5631230553       29.9227322437
  H        -6.5564249133       11.2806297504       24.6290484762
  H        -7.6058111352       11.7511415724       25.8551594811
  C        -8.5076908406       10.1522636621       24.5248714322
  H        -2.0100843909       17.4953204778       35.2473789140
  C        -3.0450178085       16.2036367118       36.4570816590
  H         4.5452332811        7.2001520156       10.7832236616
  H         4.3285031225        5.7403553554       11.6998445985
  C         2.4228302653        6.6236462320       10.9511561378
  H         7.5240689467        8.0927830806       29.8912685207
  H         6.4121859110        7.5962894165       28.8688538033
  C         6.8988350833        6.1233988805       30.1969768569
  H        -8.7423634522       10.7604928137       23.6911526167
  H        -8.2156033001        9.3011540123       24.1411441863
  C        -9.5886805185       10.0345524403       25.5583128806
  S        -3.9228314204       14.8376598463       36.9799545671
  C        -2.9026005516       17.2814727757       37.4803976366
  H         2.3052145993        6.9637677323        9.8820719197
  H         1.9274453984        5.6454799496       11.0012119698
  H         1.7874669369        7.2606559703       11.5603751088
  H         7.5625345696        5.5674955247       29.5414062302
  H         6.0187353142        5.4439807516       30.3321166333
  H         7.3388548354        6.0743311730       31.1671144137
  H        -9.3205834293       10.5980148411       26.4142574366
  H        -9.9645541582        9.0053361456       25.9278858491
  H       -10.5064525974       10.5540211016       25.1647829914
  C        -4.1395350821       15.6070348260       38.5025298249
  N        -3.5820258366       16.8500946686       38.5739593696
  O        -2.3591263812       18.3326511161       37.3635908629
  S        -4.7783518020       14.9039567688       39.8802610455
  C        -3.4856191604       17.5743971744       39.8590678582
  H        -3.2554535153       18.6106003541       39.7499207602
  H        -4.3501444019       17.4353881773       40.4790367936
  C        -2.4373323445       16.9954580576       40.6413019619
  H        -2.7634341764       16.2847348848       41.3082850245
  H        -1.6445835547       16.6646023429       39.9561751356
  H        -2.0805466020       17.8064018367       41.2846431514
