352
i=
  H         2.4244585293        3.1223725659       12.2381375201
  C         2.8999451732        2.1144812896       12.3740999973
  H         2.1881269885        1.3716419110       11.8965582068
  C         4.2844882299        2.1733998515       11.6675115783
  C         3.0986733456        1.8774678985       13.8930266865
  C         4.1884491892        2.2741229351       10.1239027544
  H         4.6603371533        1.2187323985       11.9521886642
  H         5.0495210309        2.8936357012       11.9692770330
  H         3.2843877903        2.7558280870       14.4050830325
  H         3.9987208771        1.2920074472       14.0963241183
  H         2.1499951065        1.5737434975       14.3711342620
  C         5.0144667585        1.1916916100        9.3691045552
  H         3.0781519856        2.3724693728        9.8744350727
  H         4.6655980461        3.2150698061        9.7848742930
  C         5.6408159132        1.6891530816        8.0790335087
  H         4.3126593773        0.3704262261        9.1833814611
  H         5.7662505782        0.8630267430       10.0360964520
  C         6.8779850450        2.5621510981        8.3382731197
  H         4.9825100378        2.3837048701        7.5130893599
  H         5.7914008475        0.8254968986        7.4187053204
  C         8.0839012163        1.7649644072        8.9109868237
  H         7.2481941985        2.9858572836        7.4719558775
  H         6.6426634971        3.2598900024        9.1138328945
  C         9.3519692792        2.5423938696        9.2132246758
  H         8.3020233848        0.9530433094        8.1680914137
  H         7.8213677874        1.2383727087        9.8540867682
  C         9.0316303259        3.9000469869        9.8828500620
  C         9.7976316836        3.2221711506        7.9733963539
  C        10.4291757028        1.7882658959        9.9512690260
  C         9.2943111287        4.9434306928        9.0915212795
  C         8.5827379334        4.3721064757       11.1280386838
  C         9.8111381157        4.5475607212        7.8654593410
  C        10.2912894681        2.5444964554        6.8466839467
  H        10.0291660923        1.3872376046       10.8673458484
  H        10.7608789029        0.8943897319        9.3924014929
  C        11.7223012980        2.6357586841       10.3119050169
  S         8.9335484649        6.5183040202        9.6832077671
  C         8.4482350379        5.7122500708       11.1100869143
  H         8.4359837736        3.7445742755       11.9369240590
  C        10.1252804047        5.0991733390        6.6814544448
  H        10.2894200930        1.4743859943        6.7662648778
  C        10.6420250783        3.1380738589        5.6691827649
  H        11.2676590644        3.5065580716       10.7663743913
  H        12.2571948506        3.0120787042        9.5211776207
  C        12.7383519147        1.9037356983       11.1552666213
  C         7.8815213397        6.4534058399       12.3053419313
  C        10.5887601015        4.4667843119        5.5396914317
  H        10.1216197603        6.1099554357        6.6427817046
  C        11.0333944204        2.7313485917        4.3984236005
  H        13.6359705889        2.5798459373       11.1671820162
  H        13.0375867078        0.9090984215       10.7482554653
  C        12.2200162594        1.6765430071       12.5579261606
  C         7.9249776315        7.8809986527       12.6183303087
  C         7.2730445057        5.6842296871       13.4280968409
  C        11.0020422605        5.1034313975        4.2626547697
  C        11.2893170651        3.7934599957        3.5711611379
  S        11.3740747349        1.2648261319        3.6673139802
  H        11.6449579580        2.5478829967       12.7956454233
  H        11.4996679362        0.8520311060       12.5851121129
  C        13.3277161192        1.4702367936       13.5757277931
  N         8.3545506413        8.7910881981       11.6370635288
  C         7.5886452935        8.4829617161       13.8293340310
  C         7.0344730145        6.2962793686       14.6398312756
  H         7.0991224822        4.6214958689       13.3148014221
  C        12.3467526810        5.9248614574        4.3165812666
  C         9.8663731787        5.8237589418        3.5303258305
  C        11.8073898788        3.4360901833        2.2818593070
  C        11.6336837053        2.0814728935        2.1509589450
  H        14.2094088799        1.8935879429       13.2146193323
  H        13.4254610367        0.3533123689       13.5973654186
  C        12.8247799395        1.7557116803       14.9451194311
  S         8.2827189213       10.3109909071       12.3664483918
  N         7.5744900126        9.8724586292       13.7556195160
  C         7.0644348596        7.7207367913       14.9337461959
  H         6.5346598314        5.7019325917       15.3750211393
  H        12.2514082142        6.7501559008        5.0323856234
  H        12.5690757152        6.3851918620        3.4285082781
  C        13.6454050700        5.1682364677        4.6768901622
  H         9.6646404690        6.5779665141        4.2395047937
  H        10.2723085165        6.2992642307        2.6375461377
  C         8.7147531979        5.0167085578        3.0619234428
  H        12.0230276347        4.1882193994        1.5416515076
  C        11.9475264937        1.2930608234        0.9135037587
  H        12.3399519868        2.6867509710       14.9284893971
  H        12.0854904572        1.0336960922       15.3326656091
  C        14.0002309187        2.0244718763       15.9190991202
  C         6.8102790348        8.3580405064       16.2001775301
  H        13.5646925048        4.5709709291        5.5702865530
  H        13.8102100198        4.3906565004        3.8328613543
  C        14.9075108374        6.0962989546        4.6571528962
  H         8.1816107843        4.5447630581        3.8437340079
  H         8.9737582738        4.1267172362        2.5358653459
  C         7.6820827711        5.8287314418        2.3266829107
  C        11.9683741817       -0.0365987993        0.7124983122
  C        12.1555848880        2.1003045991       -0.3425775361
  H        14.6497448448        2.7992523141       15.5266650360
  H        14.6555955948        1.1089105877       15.9569784919
  C        13.4408490867        2.2934334574       17.3707553769
  H         6.9624951367        9.4412508796       16.2863471239
  C         6.4974669385        7.9258911029       17.4773763706
  H        14.7851718834        6.9111401068        5.3006562598
  H        15.2171073030        6.4273303053        3.6934236772
  C        16.1022854453        5.3733292659        5.2029854254
  H         7.3739277690        6.5989919902        3.0422855157
  H         8.0741651227        6.3373502126        1.4640410068
  C         6.3903009679        5.0579519867        1.8710014871
  N        11.8127960997       -1.0055980698        1.7016882909
  C        12.2119236263       -0.6323908005       -0.5053373249
  C        12.3448748802        1.5542246532       -1.5968557080
  H        12.1160153425        3.1930003805       -0.3178438190
  H        13.9858195879        3.0201660941       17.9523388811
  H        13.4376877892        1.3884221970       17.9999540745
  H        12.4536878689        2.6812724255       17.3940101149
  S         6.2667494999        6.2377047196       18.0199717359
  C         6.4176244620        8.9145876773       18.5766024775
  H        16.0030459357        4.2960597458        5.1056978131
  H        16.8690535742        5.6818755623        4.4954320371
  C        16.6507345291        5.7373334658        6.6460661689
  H         6.3904762213        4.1258785749        2.4524550180
  H         6.4445651187        4.8002716240        0.8028358045
  C         5.1416587273        5.8450739361        2.0798037251
  S        11.7088980497       -2.4327663516        1.0477736656
  N        12.0672429204       -1.9942688722       -0.4264982675
  C        12.4525407818        0.0484047970       -1.7401804512
  H        12.5917439350        2.2427758421       -2.3703259210
  C         6.2168765001        6.9299708054       19.6814185314
  N         6.2255922172        8.2682321256       19.7194937094
  O         6.6533319028       10.1243913735       18.5256963307
  H        17.2030296320        6.6358264436        6.6745878152
  H        15.7980276323        5.8367972980        7.2981049495
  C        17.5013765739        4.5153423625        7.1724801146
  H         4.3703281773        5.1028977934        1.8100435329
  H         4.8467795376        6.3199322172        3.0204624608
  C         5.0265790469        6.9633000356        1.0693814530
  C        12.9698038960       -0.6606801029       -2.8434407314
  S         6.0123765020        5.9070235080       21.0847603505
  C         6.3094607773        8.9947336801       21.0173362336
  H        16.9590701898        4.0126123790        7.9246955706
  H        17.6910449968        3.6594515995        6.5027950623
  C        18.8892527438        5.1006844029        7.6586385390
  H         4.8012069843        6.5384929898        0.1074385306
  H         6.0296466511        7.3009422964        0.9127618464
  C         4.1838668295        8.1461540358        1.5906768071
  H        12.8637304670       -1.6942405530       -2.6889862603
  C        13.4420150356       -0.3064712800       -4.0877568743
  H         5.5972764320        8.6356262501       21.7181320695
  H         6.1845091381       10.0383166416       20.6951032730
  C         7.8004858942        8.9841047108       21.5778271674
  H        19.4178247546        4.3976478615        8.2757552936
  H        18.7481651958        5.9628923482        8.3228070703
  C        19.7511988956        5.4237963561        6.4561952526
  H         3.5631962789        8.4973269410        0.7417391217
  H         3.5413858899        7.8166194822        2.3647557970
  C         5.0558225998        9.2477752593        2.0884307294
  S        13.8228165971        1.3461308390       -4.5932787893
  C        13.5765121183       -1.3524836323       -5.0930136025
  H         7.7471777429        9.3316750631       22.5916978302
  H         8.5429402008        9.5817332334       21.0803810537
  H         8.2226844564        7.9350931928       21.7219597483
  H        19.7542772840        4.5757216638        5.8339132827
  H        19.4293262352        6.2385271851        5.8263900905
  H        20.8436655728        5.5929098526        6.7792137412
  H         5.5906809375        9.6295184980        1.2984735292
  H         4.3484718673       10.0021657787        2.5671865620
  H         5.6862992472        9.0233746477        2.9493920443
  C        14.2301809156        0.5143335130       -6.1226757024
  N        14.0220294901       -0.8137743490       -6.2680202840
  O        13.2604472472       -2.5287751869       -4.9579784397
  S        14.9943343024        1.3071433857       -7.5199652178
  C        14.0536298968       -1.5388742552       -7.5072217453
  H        14.2742545027       -2.5692640930       -7.3979543864
  H        14.7055216654       -1.1891213290       -8.3008464595
  C        12.6593984981       -1.3260107525       -8.0643203932
  H        11.8682439470       -1.9674480816       -7.7208976492
  H        12.6489986166       -1.3660377437       -9.1134267955
  H        12.3767220781       -0.3403525340       -7.7743035219
  H        -2.8758413388       15.3183490486       16.2344493084
  C        -3.0819978666       14.3492040638       16.6067537196
  H        -4.1176920299       14.2779754135       16.8353996888
  C        -2.2837916300       14.1857106472       17.8892552251
  C        -2.7300998707       13.2667126596       15.4758698517
  C        -2.7661869255       13.2572751390       18.9439607882
  H        -1.2924576503       13.9186270420       17.6449139388
  H        -2.2792462215       15.1533438800       18.4800112294
  H        -2.0029679275       13.6826638779       14.7791827752
  H        -2.2062640524       12.3863373705       15.8865044522
  H        -3.6658273046       12.9297377501       15.0331588644
  C        -1.5840104341       12.9024063008       19.8540262787
  H        -3.2806353829       12.4072842143       18.4268002739
  H        -3.4732217752       13.7618587007       19.5388317088
  C        -1.9916655121       13.1574955729       21.3374049721
  H        -1.1677918357       11.8437993658       19.6804508512
  H        -0.7816203827       13.5538759138       19.6365846278
  C        -0.9470801081       12.4934702321       22.2699625132
  H        -2.9918845842       12.8203114852       21.5258849211
  H        -2.0578548340       14.2889213601       21.3804881754
  C         0.2813815041       13.4898884304       22.2744892675
  H        -1.3837942359       12.2674893940       23.2544523483
  H        -0.7133979605       11.5378878360       21.8068730679
  C         1.5694554604       12.8100873386       22.8544260316
  H         0.4668220183       13.8560656439       21.2567649730
  H        -0.0333514910       14.4048666960       22.7900485861
  C         1.9434839475       11.4631514055       22.2483532773
  C         1.2421905946       12.1740317302       24.2470748101
  C         2.8153366907       13.7522971427       22.9468017363
  C         1.8375038194       10.3813983610       23.1702580148
  C         2.3920816206       11.0622132197       21.0020866173
  C         1.2789675195       10.7953540011       24.3883914453
  C         0.8779692706       12.8389013333       25.3985951107
  H         3.2086930209       14.1915685748       22.0295027798
  H         2.4563696793       14.7121595191       23.4132670645
  C         4.1088461001       13.3356203412       23.6476667748
  S         2.3391536728        8.9199443632       22.5343233636
  C         2.6465270329        9.6776448844       20.9940725262
  H         2.4061819586       11.7814629372       20.1993077393
  C         0.7824708183       10.2319508342       25.5129725907
  H         1.0241588890       13.8819753701       25.3292592331
  C         0.4228567557       12.2320865960       26.5322400424
  H         4.5589638062       12.5030346318       23.1305746456
  H         3.8252794653       13.0841709844       24.6405347464
  C         5.1085459514       14.4156942140       23.8759545842
  C         2.8867996771        8.8738905947       19.7021990500
  C         0.3105537527       10.8763280391       26.6401627149
  H         0.7335780152        9.1729004712       25.4162022426
  C         0.0012248911       12.6620324321       27.7693006428
  H         5.7850856849       14.2279223847       24.6602356871
  H         4.5933209117       15.2706542940       24.3337527094
  C         5.9042057653       14.8316311268       22.6899639922
  C         2.8729212208        7.4860637533       19.4490786254
  C         3.1415418576        9.7417692478       18.5050494308
  C        -0.1203266214       10.1943567013       27.9686268868
  C        -0.3396004229       11.5968952890       28.5958884257
  S        -0.2140787333       14.2058972977       28.4511791710
  H         6.6329700640       15.5490099743       23.1046443380
  H         5.2164721591       15.3351410127       22.1060346938
  C         6.7795149376       13.7945123636       21.8898255436
  N         2.8321284672        6.4844568862       20.4513282892
  C         3.0052345702        6.9354989871       18.1839706411
  C         3.2248121028        9.1271175379       17.2847440861
  H         3.2508618577       10.8063226909       18.5731988994
  C         1.0433599641        9.5297776742       28.7315322597
  C        -1.3627784032        9.3094752393       27.7904551803
  C        -0.7423413788       12.0547212322       29.8424671925
  C        -0.7362889090       13.4236536733       29.9450386912
  H         7.7878999528       14.1892977685       21.7341338279
  H         6.9217688434       12.8913061773       22.4825982009
  C         6.3421624212       13.3803620067       20.4595333240
  S         2.8738934542        5.0501277281       19.6916576235
  N         2.9034537551        5.5596470042       18.1717495282
  C         3.2226870251        7.6537494070       17.0517494283
  H         3.5118370473        9.6768188939       16.4076282156
  H         1.5441564070        8.9268424877       27.9595128803
  H         0.7403211501        8.7724944874       29.4657198410
  C         2.1314078838       10.4448703636       29.3291201744
  H        -1.1392558613        8.4528507105       27.1726258043
  H        -1.6542410541        8.8209805101       28.7661667856
  C        -2.5266135919       10.0523715830       27.0935107652
  H        -1.0424738417       11.3972904250       30.6787257552
  C        -1.1064731033       14.1244957053       31.2335852999
  H         5.4613269499       13.9613429736       20.0826007428
  H         5.8806841160       12.3812188935       20.5963362927
  C         7.5696035756       13.4010730620       19.5896096318
  C         3.3957731806        6.9546920029       15.7539415695
  H         2.3987638429       11.1628421985       28.5414407354
  H         1.7617406010       10.8981129223       30.2042391044
  C         3.3242450017        9.6469050884       29.7519804589
  H        -2.2864840111       10.3594693839       26.1096965275
  H        -2.7693475833       10.9657957010       27.7219142579
  C        -3.7517222139        9.1103847959       26.7671043246
  C        -1.1334171023       15.5385871264       31.4559558692
  C        -1.3274396364       13.3804293802       32.5221642155
  H         8.2143926203       14.3077744776       19.8307118189
  H         8.1582573441       12.5314675878       19.8433325370
  C         7.2905412757       13.1945025603       18.1398366060
  H         3.2613262221        5.8800591116       15.8787993814
  C         3.7220063652        7.3501160785       14.4802190723
  H         3.7345161116        9.3089197479       28.8653143500
  H         3.0126634389        8.8514861831       30.4614145609
  C         4.3856657680       10.5626409021       30.4198836643
  H        -3.5671920884        8.4900797428       25.9497398059
  H        -4.0048241286        8.4840146182       27.5545253474
  C        -5.0025397311       10.0279454165       26.6217299546
  N        -0.8570779371       16.4158039360       30.3382989188
  C        -1.4578227897       16.2095815677       32.6142024280
  C        -1.7075870720       14.0812569362       33.6663512525
  H        -1.1494219041       12.3372423423       32.7125581007
  H         8.1940375800       12.8666737814       17.6538878139
  H         6.4542165185       12.5012182483       17.8479739979
  H         6.9977508546       14.2177312991       17.7743519367
  S         4.0075720770        8.9567835265       13.9639612475
  C         3.8324135744        6.3548307009       13.4394171047
  H         4.4851655118       11.5428974548       29.9557803967
  H         3.9651367433       10.6860983078       31.3757711882
  C         5.7555823296        9.9291060916       30.4681572720
  H        -4.8056997712       10.9253394912       27.1784243019
  H        -5.8269895767        9.6382773636       27.2296417740
  C        -5.4906816661       10.0847932008       25.1822889489
  S        -1.0633365672       17.9110823381       30.9194719221
  N        -1.4784931178       17.5792164035       32.4875257132
  C        -1.7941538731       15.5551848676       33.7624061178
  H        -1.8304541354       13.5598498540       34.5586251198
  C         4.4130077633        8.3074188913       12.4026217756
  N         4.3202337646        6.9951131183       12.3718463140
  O         3.8269695604        5.0740257225       13.5965594849
  H         6.1622240350       10.2931446502       31.4047471286
  H         6.3189092307       10.4591429747       29.6919028470
  C         5.8261463463        8.4152681461       30.2425927321
  H        -4.8147957699       10.6151488070       24.5880159179
  H        -5.4645067553        9.0584313789       24.8417703435
  C        -6.8537116645       10.5965385200       25.0239707664
  C        -2.2027311902       16.2118027115       34.8980533311
  S         4.9348504392        9.1999339536       11.0819355262
  C         4.4376460833        6.3818914200       11.0967658770
  H         5.0425955869        8.0115342960       30.8997684178
  H         5.6005823374        8.1536801234       29.2193630960
  C         7.1976214425        7.7609427277       30.6435329976
  H        -6.8982672331       10.9369063489       23.9629927989
  H        -6.9295243431       11.3571677625       25.7726085304
  C        -7.9621029818        9.5770973517       25.1992704953
  H        -2.3964559930       17.2149240806       34.7767161979
  C        -2.7572290924       15.8397873069       36.0972958696
  H         5.3773777594        6.5141092944       10.6296332418
  H         4.3191238394        5.3123208655       11.1806639399
  C         3.2634830483        6.7412248875       10.2608753072
  H         7.6268689255        8.2705342969       31.4954649193
  H         7.8893968920        8.0473345097       29.8628939882
  C         7.1960250429        6.2394354342       30.8946713239
  H        -7.8056241832        8.7820000154       24.5205193564
  H        -8.0688164679        9.3057526451       26.2642300986
  C        -9.2748134941       10.2939860122       24.8088466596
  S        -3.2155576746       14.2258982104       36.5461061710
  C        -3.0246646385       16.8481914401       37.1646413748
  H         2.7470571150        5.9285733693        9.8051672172
  H         2.3918041386        7.1729173433       10.8672617664
  H         3.3975394200        7.4216436401        9.4196870499
  H         8.1388558883        6.0076089970       31.3164534884
  H         7.1132320973        5.6138906618       29.9948081488
  H         6.3638153712        5.9266877425       31.5569580195
  H        -9.3081731389       11.2556904459       25.3660640979
  H       -10.1211586849        9.7040682322       25.0245115630
  H        -9.2334722679       10.5094437483       23.7361002902
  C        -3.6800015456       14.8295321530       38.0967362284
  N        -3.6505404006       16.1931549211       38.1699930949
  O        -2.7350603068       18.0559270977       37.0871614185
  S        -4.4572279884       13.8935040305       39.3771954216
  C        -4.0265871493       16.7523085763       39.4835128780
  H        -4.2738732725       17.8504191444       39.3678711408
  H        -4.9012995158       16.3285274813       39.9685040685
  C        -2.7308679231       16.8047362936       40.3946518260
  H        -2.0697152955       16.0335155772       40.0775030332
  H        -2.2172751891       17.6959733176       40.2186036499
  H        -2.9888900907       16.7859450472       41.4620550227
