352
i=
  H         2.5807254106        4.0905956337       12.8390833241
  C         2.8510196580        3.0893623166       12.8547366812
  H         1.9905909725        2.5185434273       12.5566813567
  C         4.0282120727        2.7678921639       11.8692719664
  C         3.1437287125        2.5182103028       14.2240765560
  C         3.6988531248        2.8034438789       10.4174753972
  H         4.2527376428        1.7144073065       12.0565281647
  H         4.8077654787        3.3225117826       12.1282470432
  H         2.1958019076        2.3055603614       14.6934849617
  H         3.8013388858        3.1541111533       14.7887194979
  H         3.6918827037        1.6221221645       14.1528045093
  C         4.5841960077        1.7943367897        9.6909920524
  H         2.7287715157        2.3196088663       10.3908851746
  H         3.6440057855        3.8313560374       10.1414505166
  C         5.2875987830        2.3946241004        8.4594527098
  H         3.8199628532        1.1051459031        9.4471559382
  H         5.3599904946        1.3098502671       10.3597857789
  C         6.5275646421        3.2549117199        8.7412870735
  H         4.4860309592        2.9826541349        7.9487340745
  H         5.5078422769        1.5719596350        7.7764794269
  C         7.7787817588        2.4469841845        9.0392091455
  H         6.8341758834        3.9566959361        7.9763409344
  H         6.2576113255        3.8763824612        9.6762811980
  C         9.0345036215        3.2646820571        9.1900066859
  H         7.8875388376        1.6284437502        8.2970543820
  H         7.5483557717        1.9322388657        9.9772657332
  C         8.6603549076        4.6378869914        9.7753615330
  C         9.4878056503        3.9349338851        7.9131028156
  C        10.0965029636        2.4305812060        9.9543743648
  C         9.0003705865        5.7128867149        8.9649690877
  C         8.1661839108        5.0604936711       10.9967064296
  C         9.4071942748        5.2550801666        7.7376216978
  C         9.9587356330        3.2532598330        6.7835170137
  H         9.5808085073        2.1497110111       10.9486659573
  H        10.2289407949        1.5232459730        9.4016076201
  C        11.4448993021        3.1553603907       10.1530403447
  S         8.8296070664        7.1981198083        9.7750474636
  C         8.1125911948        6.3843065859       11.1437972623
  H         7.9098149398        4.2270894479       11.6495437920
  C         9.7787987032        5.8382359466        6.5867434088
  H        10.1793306769        2.2196830210        6.8845856813
  C        10.3565559106        3.8243010642        5.5977601700
  H        11.1597081175        4.1307080857       10.6267763365
  H        12.0621518556        3.3858641784        9.2686842549
  C        12.2666923094        2.5359519004       11.3463997349
  C         7.6968974805        7.1463227254       12.4245134510
  C        10.3123013062        5.1498799819        5.4593192009
  H         9.6668967229        6.9266337833        6.6504622702
  C        10.8902265813        3.3530750730        4.4331516625
  H        13.3207797825        2.9698468491       11.2814376833
  H        12.4350938680        1.5345242361       11.1183048239
  C        11.5448595851        2.7004686533       12.6839891020
  C         7.7225974443        8.5524861238       12.6549494132
  C         7.2568893871        6.3014849752       13.5237271456
  C        10.9013908340        5.8054964483        4.2657187626
  C        11.1083701206        4.4485816369        3.5737258049
  S        11.0814574227        1.8309354797        3.7059421876
  H        11.0495923180        3.6862184595       12.6893023269
  H        10.7320942595        1.9626003848       12.6134860119
  C        12.2831469850        2.3497033102       13.9713396913
  N         8.1797237305        9.5099237174       11.7460127956
  C         7.4709041787        9.0794384105       13.8831369329
  C         6.9927897401        6.7752849113       14.7680872636
  H         7.0822938689        5.3103704017       13.2799382070
  C        12.2654639989        6.4376506254        4.5144007241
  C         9.8436354273        6.7291315169        3.5595963166
  C        11.6126102385        3.9879943872        2.3213120461
  C        11.5615661778        2.6006977238        2.2514511077
  H        12.9916434125        3.2175981927       14.0954482038
  H        12.9506738792        1.4890214902       13.9611124256
  C        11.4503292204        2.2168341580       15.2366304655
  S         8.1878219012       10.9733916832       12.3736254794
  N         7.6323582777       10.5132925292       13.8558831491
  C         7.0707668332        8.2479829799       15.0264968552
  H         6.5344281016        6.1403656870       15.4702510992
  H        12.0630687460        7.0244706137        5.4226641164
  H        12.4945777180        7.1049718876        3.6879536229
  C        13.4868095356        5.5825182500        4.8284291241
  H         9.3585078576        7.3440588682        4.3550419737
  H        10.4773577271        7.4354247385        2.9360819571
  C         8.7794914971        5.8990302322        2.8877218175
  H        11.9643861102        4.6375463909        1.5087065232
  C        11.8469256764        1.7849672869        1.0227297921
  H        10.8411838723        3.0166901414       15.3418320161
  H        10.8086038925        1.3681818717       15.0381695070
  C        12.1768768443        2.0395500826       16.5565369382
  C         6.7383779531        9.0248725041       16.2037704574
  H        13.2850874556        4.8386542481        5.6108150749
  H        13.7423078772        5.0825745138        3.9484090866
  C        14.6440393051        6.4935281010        5.2979479036
  H         8.2773510543        5.1494943881        3.5178103609
  H         9.3328127368        5.4138831226        2.0734838773
  C         7.6705195289        6.7294366954        2.2393021760
  C        11.8054728451        0.3993927018        0.9803746773
  C        12.3722779626        2.5020356126       -0.1703068322
  H        12.8711428938        1.2260334938       16.4882600168
  H        11.4248279464        1.7426289157       17.2537104705
  C        12.9442724400        3.2875541331       17.0560540862
  H         6.7659441073       10.1072037873       16.0720227931
  C         6.4282343166        8.5629787956       17.4487033038
  H        14.2885741313        7.4605350800        5.6734411662
  H        15.1934931564        6.7692725202        4.4097619302
  C        15.5596796504        5.8234796502        6.3191730588
  H         7.1651715396        7.4304172786        2.9178660938
  H         8.1221966922        7.3609526636        1.4934052616
  C         6.5807806303        5.8087658335        1.5642704083
  N        11.4416123185       -0.5072638927        1.9640369129
  C        12.1613848677       -0.3070599413       -0.1117240544
  C        12.7067439269        1.7973588071       -1.3236284054
  H        12.3188373095        3.5908776242       -0.1423141551
  H        12.6658092460        4.1722927197       16.4565311525
  H        13.9777096644        2.9859983054       16.8429700482
  H        12.8008859986        3.6440148584       18.0823723613
  S         6.1444079410        6.9212041433       17.9088764944
  C         6.3061372585        9.5214138509       18.5918686326
  H        15.3819576943        6.2578878200        7.2655664329
  H        15.2722383176        4.8345572804        6.3091666722
  C        17.0202287232        5.7911915217        5.9202846013
  H         6.7054120232        4.7618836963        1.9232412147
  H         6.6509499363        5.7569166761        0.5070994273
  C         5.1755696493        6.3691815810        1.7777735446
  S        11.6786241470       -2.0318688092        1.5700238527
  N        12.1369421146       -1.7363388307        0.0283249946
  C        12.6714687666        0.3241951087       -1.2981176208
  H        12.7631689209        2.2979640270       -2.2652994254
  C         5.9095180221        7.5417281571       19.5430406354
  N         5.9115048524        8.9199980972       19.6830446352
  O         6.7675873525       10.6000171502       18.4808486371
  H        17.2946616176        5.3439377097        5.0027715310
  H        17.3216084583        6.8390707357        5.8237500926
  C        17.8378008148        4.9728983164        6.9963349657
  H         4.4827285348        5.7228727914        1.2385476128
  H         4.9042331800        6.2559328985        2.7929850118
  C         4.9852684957        7.8606770824        1.3427652793
  C        12.9724098636       -0.4698216511       -2.4572582669
  S         5.6540687752        6.6133319683       20.9381628827
  C         5.8195678691        9.6339677101       20.9853279747
  H        17.1459355974        4.7804199576        7.8227125597
  H        18.1110795518        4.0039556283        6.5431604468
  C        19.0348729731        5.7773017922        7.5467482167
  H         4.6794591229        7.8442938985        0.2715926375
  H         5.8504693389        8.5271977716        1.4432743350
  C         3.8385001621        8.5237562814        2.0739086605
  H        12.5751385779       -1.4666379804       -2.5250812059
  C        13.4559863124       -0.1418031239       -3.7476575513
  H         5.1023869883        9.3121879423       21.7660599587
  H         5.3908992343       10.5681431364       20.7951765424
  C         7.3000550856        9.7016108271       21.6151442564
  H        19.3969512030        5.5185262360        8.5476324716
  H        18.9322917121        6.8854294366        7.6075954421
  C        20.2436225908        5.6698177700        6.6938383230
  H         3.0249153533        8.2658836114        1.3999035390
  H         3.6566048406        8.3294606596        3.1590916127
  C         4.0065368703        9.9956848813        2.1494531074
  S        13.9351016975        1.4529297550       -4.2699944563
  C        13.4962219642       -1.1998976708       -4.7902121388
  H         7.2126473611        9.0116724015       22.4484342233
  H         7.6125781933       10.6944186076       21.9323055976
  H         8.0439809652        9.2890369340       20.9463388392
  H        20.1873862844        6.2403263545        5.7472453798
  H        21.0759489370        5.8575782713        7.2177683959
  H        20.3770224343        4.6550075852        6.4933056782
  H         4.6910027195       10.1994349075        2.9751603175
  H         4.3817546990       10.4339003582        1.1920225247
  H         3.0831084041       10.5310337872        2.4848773677
  C        14.0707732600        0.7623533086       -5.8546277934
  N        13.8621944763       -0.6098419398       -5.9204461088
  O        13.3108178445       -2.4112352429       -4.5944822933
  S        14.4938146511        1.6664343411       -7.3187289197
  C        13.8734618082       -1.2658861670       -7.2456293744
  H        14.3814753495       -2.2714155367       -7.2447659819
  H        14.5318728010       -0.8317642691       -7.9417761970
  C        12.5259602446       -1.2162915014       -7.8393625053
  H        11.7886869297       -0.5090719051       -7.4721049037
  H        12.0277942126       -2.1435861670       -7.7757578316
  H        12.6958025223       -0.9440100496       -8.8404116677
  H        -3.3435788747       15.0885572776       16.7341504872
  C        -3.1010478313       14.0187734644       16.6414078679
  H        -3.8977140029       13.5533480797       17.1996357614
  C        -1.7494747301       13.7965298904       17.3791679607
  C        -3.1962492152       13.6664683953       15.1711488724
  C        -1.8087162555       13.0507942288       18.6930297972
  H        -1.0432223632       13.3853647007       16.6232951502
  H        -1.2159690696       14.7208583759       17.5117808474
  H        -2.3933686223       14.1335541407       14.6266076889
  H        -3.0713801612       12.5837566415       15.1551726762
  H        -4.1594341569       13.9818033271       14.7199282071
  C        -2.4511978990       13.9708794744       19.7189940447
  H        -0.6961309830       12.9333651295       18.9662467122
  H        -2.2511478038       12.0678829842       18.6454284406
  C        -2.8857078349       13.4371153798       21.0635571508
  H        -1.7562967262       14.7539958207       19.9177778052
  H        -3.2660677569       14.4295849171       19.2373633918
  C        -1.8139651886       12.9140651378       22.0653512911
  H        -3.7312047977       12.7592590101       20.8221169341
  H        -3.4186763461       14.2389909233       21.5411613701
  C        -0.6291728503       13.8598700729       22.3681987488
  H        -2.2346428556       12.4930076157       22.9443961556
  H        -1.5254318278       11.9380742641       21.5828756465
  C         0.6773432170       13.1202919609       22.9065366698
  H        -0.2678474454       14.4109236880       21.4780005075
  H        -0.8628624445       14.6613251836       23.0510185441
  C         1.0117614071       11.8130034770       22.1809226980
  C         0.3924739699       12.3866038935       24.1726251882
  C         1.8937353190       14.1141099803       23.1149613268
  C         1.1224940339       10.7176892874       23.0344394289
  C         1.4675005706       11.4853925289       20.9073633391
  C         0.5484776262       11.0787974978       24.2751869054
  C        -0.1044510127       12.9841603265       25.3343706720
  H         2.1639981660       14.6387205289       22.1764907469
  H         1.6222748447       14.9544983813       23.7768980250
  C         3.0991799173       13.4977654468       23.7685468927
  S         1.7869294991        9.2961802948       22.3307108284
  C         1.9083560036       10.1894248172       20.8362612407
  H         1.6279162369       12.2697116576       20.1827696673
  C         0.2513196957       10.3996288391       25.4511903592
  H        -0.3897800605       14.0196071366       25.2639904044
  C        -0.4813374122       12.3167646128       26.5048903822
  H         3.3636057167       12.5756475273       23.2302035724
  H         2.8492326993       13.2927971875       24.8264977335
  C         4.3674544943       14.4329426008       23.7292491782
  C         2.4525552213        9.6055122851       19.5929063090
  C        -0.2543067395       10.9945276339       26.6294297047
  H         0.5195177812        9.3995821135       25.4555001110
  C        -0.8356780517       12.7362485001       27.7836915046
  H         5.0903209580       13.9457467281       24.4405965620
  H         3.9732104080       15.4012024067       24.1026343079
  C         4.9549089132       14.6792589774       22.3439326856
  C         2.5928003760        8.2271260450       19.3534357922
  C         2.9883893534       10.4388643597       18.5069444459
  C        -0.6224531988       10.3070659700       27.9948747070
  C        -0.9385051149       11.6553134765       28.6390851225
  S        -1.0695229476       14.2801426876       28.5231963434
  H         5.6918730718       15.4843598514       22.5066412356
  H         4.1445083360       15.0327659526       21.7414384502
  C         5.6319198572       13.5406106495       21.5842201079
  N         2.4432094902        7.2896910541       20.3680756832
  C         2.8833676022        7.6570947558       18.1321477194
  C         3.3781144621        9.8723385439       17.2547949256
  H         3.1711762111       11.4518720876       18.6300865261
  C         0.4797012508        9.5628117614       28.7284901137
  C        -1.8706412598        9.4128447404       27.8559923442
  C        -1.3453515343       12.0923289061       29.9619128821
  C        -1.3604268329       13.4973603734       30.1010121883
  H         6.6305073953       13.2639819556       21.9215351439
  H         5.0165447810       12.6573619933       21.6296714112
  C         5.7606295908       13.9061269624       20.0552950701
  S         2.4660362730        5.8173655582       19.6514217941
  N         2.6749023264        6.2810755462       18.1206462100
  C         3.2221566994        8.4516542614       17.0020551788
  H         3.8755486285       10.5401165321       16.6207865120
  H         0.7643838253        8.6108368678       28.2111865800
  H         0.0738589048        9.0709539028       29.5679562631
  C         1.5903278593       10.4447691163       29.3115744992
  H        -1.6939547793        8.6619559015       27.0445380066
  H        -2.0446007829        8.8552026912       28.7537149994
  C        -3.0956575917       10.1638330946       27.4788219528
  H        -1.5016895758       11.3663815510       30.7656535225
  C        -1.5687253188       14.2295490231       31.3101829072
  H         5.3816314434       14.9075441006       19.8531174348
  H         5.1197822078       13.2244625692       19.5008421800
  C         7.1695876936       13.8281061771       19.3924834523
  C         3.5034902966        7.7624295867       15.7306995888
  H         1.8587872456       11.1301964690       28.4859043503
  H         1.2503318011       11.0053319785       30.1996884984
  C         2.7937055467        9.5678605040       29.7503506421
  H        -2.8121234107       10.6321929662       26.5397088368
  H        -3.5350088444       10.8547888546       28.1455363882
  C        -4.2828474332        9.1674824086       27.1489036727
  C        -1.6304597395       15.6484683795       31.4205265801
  C        -1.6513123067       13.4510847838       32.5911090363
  H         7.7905183246       14.7217602475       19.6598006943
  H         7.5906999421       12.9135426658       19.7034998724
  C         6.9528031792       13.8109322699       17.8622656538
  H         3.5422008399        6.6681474176       15.8461517792
  C         3.8442296778        8.2335926483       14.5191561820
  H         3.1256016643        9.1016204390       28.8479699051
  H         2.5379911514        8.7312980380       30.3779591433
  C         4.0503574966       10.3198218935       30.3649473412
  H        -3.8913427598        8.5042134550       26.3442391084
  H        -4.4921755820        8.6373255344       28.0508017911
  C        -5.6558790758        9.8799985531       26.7898020284
  N        -1.4320769189       16.5756503681       30.3925646995
  C        -1.9662894403       16.2772601001       32.6311714365
  C        -1.8636763317       14.1099550460       33.7801675787
  H        -1.7722632984       12.3575469144       32.6263574265
  H         7.8100689040       14.0743780866       17.2933072437
  H         6.7302441447       12.8152255957       17.5733123390
  H         6.1853961070       14.4980007083       17.6017286755
  S         4.0282696865        9.8943117056       14.0487417984
  C         3.8842065192        7.2732377383       13.3949090847
  H         4.0652042068       11.3457883408       29.8414899742
  H         4.0191964490       10.5116111080       31.4324621678
  C         5.4038250612        9.6338921626       30.2052902837
  H        -5.9633690821       10.5680972576       27.5764088029
  H        -6.4292026373        9.0943788001       26.8231488329
  C        -5.6294165691       10.4902079583       25.3928633255
  S        -1.7661640678       18.0118693636       30.9784182481
  N        -2.0553964969       17.6248050165       32.5030987940
  C        -2.1312068296       15.5804278493       33.8722830334
  H        -2.1203653352       13.4839136450       34.6319610494
  C         4.3964188334        9.2365277435       12.3938917796
  N         4.2692698469        7.9204531870       12.2427285561
  O         3.7332173097        6.0290671795       13.5748278912
  H         6.1645314742       10.2250948912       30.6014013870
  H         5.6486328548        9.3457117588       29.1831622657
  C         5.6883357807        8.3324779980       30.9723974225
  H        -4.6727019004       11.1198782047       25.2259867275
  H        -5.6606243080        9.6208560183       24.7290839105
  C        -6.8464063444       11.3338771335       25.1524481066
  C        -2.3700144014       16.3949313316       34.9920161450
  S         4.9775059982       10.2547617471       10.9939437210
  C         4.2766335401        7.2436414226       10.9833572354
  H         5.9434962580        8.4646700305       32.0825882498
  H         4.7309317445        7.8715655538       31.0970875947
  C         6.4850256733        7.3327725392       30.2344327010
  H        -6.7129656411       11.7422130201       24.1323383014
  H        -6.9250956959       12.1509326473       25.9245130683
  C        -8.1404772716       10.5800344760       25.0856112750
  H        -2.3344997696       17.4145939462       34.8674345459
  C        -2.7636103983       16.1245106766       36.3154836140
  H         4.9091036660        7.5099024430       10.1042159947
  H         4.7511526640        6.2306528768       11.1487319890
  C         2.8343190221        7.1295380945       10.4154437372
  H         7.3678971736        7.7985820055       29.8682673009
  H         5.9282342547        6.9938695687       29.4043973910
  C         6.8474650862        6.0906526173       31.0257566504
  H        -8.5999206395       10.8772158637       24.1125472888
  H        -8.0518991886        9.5027950097       25.0821371501
  C        -9.0295266446       10.9640992042       26.2827510047
  S        -3.0284549751       14.5199872965       36.8694437216
  C        -3.0270195034       17.2043057523       37.2980606855
  H         2.5907413676        8.0193474480        9.7667547390
  H         2.7360268248        6.2228944715        9.7713917065
  H         2.1248823444        7.2220753811       11.2381154942
  H         7.5488415416        6.3257598910       31.8508980924
  H         7.2688608257        5.3997945434       30.2935080221
  H         5.9150825637        5.6603035702       31.4240686029
  H        -9.6331306110       11.7848598337       25.9088750863
  H        -8.5075451934       11.2497410758       27.1528371528
  H        -9.7606301265       10.2081457110       26.6210688699
  C        -3.5568723422       15.3116373524       38.3488822766
  N        -3.4149070772       16.6647790411       38.4428763650
  O        -3.0077804064       18.3849981423       37.1321136430
  S        -4.3605926467       14.5292351472       39.6759288948
  C        -3.5422400322       17.5435880857       39.7376051273
  H        -4.0773592831       18.4625280335       39.4738144424
  H        -4.1417907279       16.9980420802       40.5525118840
  C        -2.1573135128       17.8874886677       40.3703570098
  H        -1.6374043633       16.9671142252       40.6511700473
  H        -1.5576849469       18.5124166331       39.8470273444
  H        -2.4279097049       18.3750017413       41.3143007665
