352
i=
  H         2.8329971468        3.5859081612       12.9189750875
  C         3.5535997908        2.7746581691       13.0238112561
  H         2.9140127424        1.8933463446       13.1360350279
  C         4.7014095208        2.5693410047       11.9480165369
  C         4.1953885576        2.9671646739       14.3240910433
  C         4.1915476883        2.5688231734       10.5083360599
  H         5.0685727093        1.5803914627       12.1876718250
  H         5.6216180964        3.1232947928       12.1183858118
  H         5.1434077011        3.5448211707       14.2639045706
  H         4.6337308059        2.1136221879       14.7914623876
  H         3.6168664029        3.4410353619       15.1199475628
  C         4.8844172646        1.5516636042        9.5883521415
  H         3.1497926723        2.4168196079       10.4716422605
  H         4.3227058634        3.6255860320       10.1253417085
  C         5.6934978229        2.1036690943        8.3943568768
  H         4.2185931928        0.8225770472        9.1511450062
  H         5.5284804382        0.8994993102       10.1136936532
  C         6.9148905865        2.9581876035        8.7717482551
  H         4.9679061062        2.5562432829        7.7309257308
  H         6.0355842263        1.2166518556        7.9079434776
  C         8.1653847679        2.0817146197        9.2285605161
  H         7.2115437943        3.5550193247        7.9776579027
  H         6.4707105601        3.5580636375        9.5092527464
  C         9.4281620522        3.0540371622        9.4007862866
  H         8.2993678386        1.2435297528        8.4801358761
  H         7.9535379395        1.5871301798       10.1575853503
  C         8.9262238854        4.3389717007       10.0602643629
  C         9.7282939409        3.7709976598        8.1355333227
  C        10.6320792839        2.3603003872       10.1466139077
  C         9.0856220313        5.4239159123        9.2891365693
  C         8.4001601410        4.7264230033       11.3150914310
  C         9.5385185559        5.0765340995        8.0494543555
  C        10.1589340868        3.1688493884        6.9135473216
  H        10.3283691587        1.9622663095       11.1100176673
  H        11.0723080457        1.6359102304        9.5005889091
  C        11.6843458294        3.4035304407       10.4503857202
  S         8.3535651334        6.9167652979        9.9021477136
  C         8.2781013408        6.0645342483       11.4150432782
  H         8.2214072435        3.9213161213       12.0243287238
  C         9.9525217963        5.7116650655        6.9072240921
  H        10.2890307992        2.0806356355        6.9772090586
  C        10.4619681370        3.7943558933        5.7544435503
  H        11.3126245715        4.2614839817       11.0844538099
  H        11.9735736347        3.8555882620        9.4462233568
  C        12.9300060923        2.7582347205       11.1013087535
  C         7.7137999782        6.7611581587       12.6259719568
  C        10.4191127932        5.1361094944        5.6862410615
  H         9.6965113764        6.8255529378        6.8904060862
  C        10.8332670562        3.4084455125        4.4876892163
  H        13.7784920642        3.4650030342       11.0657488366
  H        13.1946682933        1.8096902825       10.5841884231
  C        12.4791710324        2.6010432224       12.6340635913
  C         7.8554966553        8.1038062998       12.9059008337
  C         7.1788435139        5.9109554927       13.6944284616
  C        10.7209863424        5.8465410251        4.3980148674
  C        11.0266405277        4.4935600300        3.6983871338
  S        11.1048497896        1.8262781140        3.7277034389
  H        11.9065103682        3.5095331276       12.9441904426
  H        11.7496908029        1.8338055114       12.6779492956
  C        13.6038022275        2.2991992207       13.6128885402
  N         8.2836718764        9.0608257100       12.0419310884
  C         7.5617689064        8.6506009605       14.1476729295
  C         6.7412014508        6.4174493650       14.9164644189
  H         6.8885606723        4.8598023825       13.5397155711
  C        11.9541841197        6.7208411449        4.5435197841
  C         9.4604117452        6.6108896282        3.8420581153
  C        11.3694677547        4.0215636786        2.3833245046
  C        11.4356406408        2.6317697169        2.2602396985
  H        14.2854417765        3.1658289196       13.6649633667
  H        14.1839508094        1.4017517066       13.3239932662
  C        13.0459686397        2.2882616315       15.0479336895
  S         8.2790934511       10.4814952914       12.8510540178
  N         7.7619366001        9.9786769376       14.2596735748
  C         6.9883769951        7.8729972809       15.2039382269
  H         6.2064840842        5.7613361919       15.5945723514
  H        11.9295666723        7.2437293823        5.4983099888
  H        12.0498743988        7.4959964853        3.7271048083
  C        13.2700527880        5.9241245052        4.6068368653
  H         9.0076473496        7.1578746575        4.6578270393
  H         9.8047934397        7.4093486270        3.1763552775
  C         8.3710422545        5.7969106474        3.1405730635
  H        11.5703749615        4.7964567618        1.6248748518
  C        11.6079891856        1.8496517756        1.0013207467
  H        12.6289978540        3.2738229004       15.2135392603
  H        12.1875386995        1.6983579352       15.0096882006
  C        13.9997639267        1.8729131120       16.1399503924
  C         6.7792269995        8.5362484407       16.4916533645
  H        13.2877738590        5.1293730821        5.4570826359
  H        13.5078815540        5.4256522005        3.6841724546
  C        14.5059784633        6.8399617611        4.7973606367
  H         7.8468092796        5.2746166248        3.9221423790
  H         8.8941012198        5.1467977714        2.4152897614
  C         7.3643744016        6.6825591785        2.3066655819
  C        11.7268257736        0.4081736990        0.9596967831
  C        12.0193045794        2.5400735970       -0.2195131190
  H        14.9913974827        2.0742487390       15.7303485352
  H        14.0169917778        0.7747909392       16.2607342116
  C        13.7542506550        2.6826904352       17.3569369745
  H         6.7230559155        9.6215435452       16.4500044342
  C         6.6242812371        7.9541420108       17.7484033180
  H        14.2567877564        7.6518007393        5.5559874702
  H        14.5793722654        7.4553331820        3.8911621064
  C        15.7944243868        6.0920458790        5.1165808054
  H         7.1713240824        7.4818347378        2.9784481397
  H         7.8904885606        7.1565705612        1.5236277538
  C         6.1313838169        5.9589250055        1.7337070955
  N        11.4749973141       -0.4527086921        2.0292989156
  C        12.1525597548       -0.2404298789       -0.1968623605
  C        12.2498250038        1.8652086107       -1.4285546191
  H        12.0995393799        3.6512565946       -0.2430412903
  H        12.8090908025        2.3471219898       17.8359634912
  H        13.5753709624        3.7192788171       17.1192820166
  H        14.6411223172        2.6596053724       18.0341446693
  S         6.4410568976        6.2961492133       18.2233449423
  C         6.6516165842        8.9387900354       18.9477021719
  H        15.8784481857        5.0735297136        4.7015226256
  H        16.4409567846        6.6694320207        4.5746213229
  C        16.2633331017        6.1684876165        6.5376506771
  H         5.8789067812        5.0971009476        2.4278480411
  H         6.4363639413        5.5298197990        0.8316526760
  C         4.8699240495        6.7814697540        1.7061994378
  S        11.6121178419       -2.0204773622        1.4645053961
  N        12.1570653890       -1.6343457403       -0.0353061411
  C        12.4291771590        0.4148164400       -1.4186759053
  H        12.4874543547        2.4633960500       -2.3047705279
  C         6.1738173212        6.9423571388       19.8169409073
  N         6.2562727264        8.2557143601       20.0116607850
  O         6.9432960381       10.1139281366       18.9228040965
  H        16.4712470658        7.1591698773        6.8666285777
  H        15.5110789342        5.7343796217        7.1547560018
  C        17.5095963184        5.3240040057        6.8522351307
  H         3.9270945812        6.2397181179        1.7270673692
  H         4.7941385632        7.3337428607        2.6582404367
  C         4.9074742625        7.8934791755        0.6434451391
  C        12.8050315877       -0.2813101517       -2.5578962148
  S         5.8638348063        6.0249827648       21.2416340541
  C         6.3189669533        8.9778444272       21.3384878368
  H        17.5012849987        4.9181626550        7.8489713108
  H        17.5316060837        4.5756563146        6.1237312374
  C        18.7826508128        6.1190621932        6.7651605653
  H         4.7775675828        7.5266370759       -0.3437018138
  H         5.9294065285        8.2649311595        0.6853102195
  C         3.8163719125        8.9244503565        0.7918386260
  H        12.6103729234       -1.2941851838       -2.3494623470
  C        13.1771513787        0.0326980318       -3.8621272814
  H         5.6361177377        8.4145089337       21.9686041435
  H         5.8405218524        9.9105436733       21.1222624244
  C         7.7281002166        9.0558447912       21.8065840403
  H        19.1678544940        6.1460146134        7.8215131625
  H        18.5073375081        7.1424021033        6.5359042056
  C        19.7881258807        5.4375485216        5.8066503260
  H         3.5892809987        9.2900680311       -0.1570960141
  H         2.9206685948        8.4159343310        1.2513895915
  C         4.0812707646       10.1637562838        1.5776793871
  S        13.6618290184        1.5175769740       -4.5824068176
  C        13.3390451037       -1.1471620015       -4.7370665825
  H         8.0683533427       10.0661024779       22.2084730370
  H         8.2705523619        8.9756921028       20.8389043448
  H         8.0447564384        8.2225973608       22.3958188855
  H        19.9829078227        4.4238039017        6.1359992853
  H        19.3454567173        5.3239403306        4.8236538241
  H        20.7641516215        5.9532915403        5.7074996373
  H         4.8781742349       10.8548882042        1.0875200848
  H         3.1969207402       10.7859938197        1.5715940769
  H         4.4329244525        9.9458573913        2.6160254730
  C        13.8525561855        0.5966871164       -5.9913988497
  N        13.8760023126       -0.7584267958       -5.8529034413
  O        12.9689557625       -2.3078779229       -4.5912083588
  S        14.4443118288        1.3610320818       -7.4697295191
  C        14.1174249014       -1.7517191223       -6.9834274314
  H        14.5307730774       -2.6986090854       -6.5465331526
  H        14.8973865460       -1.3498200822       -7.6468838687
  C        12.8842803792       -1.8564163368       -7.9110359994
  H        13.0004492263       -1.5909824957       -8.9755178993
  H        12.0217348682       -1.3541638178       -7.4907250107
  H        12.4662433584       -2.8596905569       -7.8485279440
  H        -3.5385994498       14.7969809260       16.2024695391
  C        -3.2071253703       13.7430433654       16.2602179934
  H        -4.0466684462       13.0893295510       16.5177997446
  C        -1.9913823586       13.4690193163       17.1575840805
  C        -2.8894993739       13.3290066072       14.8335065532
  C        -2.3453373744       13.7964349086       18.5932732786
  H        -1.9330440729       12.4020082152       17.1143989303
  H        -0.9987075120       13.8124062396       16.8115567790
  H        -2.5373537891       14.1534279835       14.2334784820
  H        -2.2692541660       12.4814357205       14.8429774693
  H        -3.8625112972       12.9585589483       14.4798661890
  C        -1.2343311156       13.4841276838       19.5407313164
  H        -3.3294945594       13.4562983232       18.8377529680
  H        -2.4770360587       14.9085012601       18.5368775631
  C        -1.6320499491       13.6071881466       21.0228969287
  H        -0.6274973626       12.6392985924       19.2364141912
  H        -0.5376479732       14.3759101600       19.5052908933
  C        -0.6921045294       12.9120119351       22.1517039432
  H        -2.6870492201       13.1360090140       20.9926803311
  H        -1.8574639065       14.6467228505       21.3354795893
  C         0.5812115478       13.7008895016       22.3874364455
  H        -1.1681121649       12.8048160066       23.1703029270
  H        -0.4535906747       11.8881444529       21.7728437142
  C         1.6436763770       12.9366539256       23.1690494196
  H         0.9951916216       14.1063776823       21.4936567341
  H         0.2355799986       14.5522567101       22.9604743324
  C         2.0449310455       11.5141223014       22.4740270792
  C         1.1174360874       12.2150198516       24.3960378642
  C         2.8286598843       13.8604918285       23.5879946874
  C         1.7624185815       10.4274114289       23.2343780881
  C         2.4583170025       11.1078783623       21.1729699549
  C         1.1815783169       10.8218585795       24.4576384211
  C         0.5173021896       12.7630516231       25.5289214856
  H         2.9044505365       14.6420829719       22.8302379751
  H         2.6377024409       14.2723606232       24.5989758422
  C         4.0856490782       13.0928524573       23.8158284982
  S         2.2597709918        8.9531722873       22.5706125393
  C         2.6078236248        9.7285966111       21.1234067098
  H         2.5634659545       11.8153538831       20.4531608628
  C         0.8198629884       10.1966558237       25.6329664403
  H         0.3414282256       13.8650622197       25.5695488809
  C         0.1615340989       12.1192350260       26.6686989374
  H         4.3152166284       12.3398983668       23.0178026258
  H         3.9245135563       12.6390940546       24.7517591046
  C         5.2594163814       13.9672866088       23.9975273916
  C         2.9512655231        9.1052779533       19.8208510760
  C         0.3136454663       10.8171033758       26.7474869195
  H         0.8227017398        9.1392941026       25.6908782307
  C        -0.2628611176       12.5173182809       27.9254816403
  H         5.9824083842       13.5770812325       24.7528002839
  H         4.7820964831       14.8455152890       24.5211521508
  C         5.7613128883       14.4970934062       22.6404081646
  C         2.8731547234        7.7837486877       19.4508242842
  C         3.1997599228        9.9772002272       18.6735139505
  C        -0.1008105291       10.1525414141       28.0203109991
  C        -0.4819101253       11.4215675399       28.7822097403
  S        -0.5500172947       13.9692625675       28.6843538521
  H         6.2317827553       15.4899147676       22.7901303222
  H         4.8471125386       14.6070688235       22.0441036367
  C         6.6554670761       13.5547418275       21.9139068023
  N         2.4634418426        6.7761093727       20.3441971701
  C         3.0977947993        7.3061232115       18.1720968059
  C         3.3544604250        9.5305040190       17.3745597456
  H         3.4203451644       11.0921481901       18.8330032113
  C         1.0293846528        9.1933889875       28.5857947793
  C        -1.3956957509        9.3046043529       27.8546311723
  C        -0.8706371887       11.8498569498       30.1129191159
  C        -0.9873935481       13.2181760503       30.1351699784
  H         7.6003336553       13.8990773439       22.1741678222
  H         6.7176097261       12.4872371730       22.2419849758
  C         6.5196554161       13.4795403005       20.3579284099
  S         2.4459177893        5.3742096115       19.4498902921
  N         2.9049945503        5.9517763757       18.0311308390
  C         3.3106602629        8.1309853448       17.0955103827
  H         3.5956291513       10.3165571461       16.6288673618
  H         1.4667900167        8.5768964589       27.7828503299
  H         0.6538878906        8.5816832420       29.4381457471
  C         2.2310218323        9.8717655794       29.2511887096
  H        -1.2835496351        8.4639017179       27.1147433929
  H        -1.7078198032        8.8159026970       28.7878872820
  C        -2.6732917109       10.0495793710       27.4344812813
  H        -0.9925357104       11.1173944790       30.9097804892
  C        -1.3287264475       14.0052959489       31.3588693892
  H         5.9286278391       14.3710515182       20.0773497101
  H         5.8908368340       12.6723133692       19.9557710898
  C         7.9504497932       13.2879322162       19.7827099363
  C         3.4742471804        7.4733567902       15.8234330367
  H         2.6262573589       10.5303149173       28.5490719435
  H         1.9165068040       10.3643413668       30.1719347756
  C         3.3561281463        8.9134082260       29.5697802048
  H        -2.4894486420       10.5460664784       26.4562451099
  H        -2.9933377178       10.7423876920       28.1395713883
  C        -3.9347497131        9.1440789290       27.3874255432
  C        -1.3029694579       15.3781985290       31.5166670337
  C        -1.5745131878       13.2669168535       32.6973910225
  H         8.5622361907       14.0845916197       20.0920803722
  H         8.3778838336       12.3455054403       20.0104272853
  C         7.9280922377       13.3851803069       18.3330618469
  H         3.2602882778        6.4180891448       15.6473938716
  C         3.8295652355        7.9622821941       14.6036842747
  H         3.7549384111        8.5064518138       28.6322655121
  H         2.9551583797        8.0866632116       30.1269954882
  C         4.5988270718        9.6118580931       30.2558616157
  H        -3.9057287831        8.5907896439       26.5303439787
  H        -3.9040963929        8.5055396034       28.2803673604
  C        -5.2210580454        9.9756203031       27.3623224684
  N        -0.8651039663       16.1939919465       30.4909995243
  C        -1.5743507611       16.0499467028       32.7022549680
  C        -1.9275615941       13.8860336687       33.9181920356
  H        -1.5365792834       12.1774495395       32.6480070357
  H         8.3797620448       14.3319965612       17.9861667049
  H         8.4504282123       12.5128899577       17.8779088561
  H         6.9501184719       13.2855760305       17.9000051680
  S         4.1354484688        9.5957589828       14.2072107845
  C         3.8397510715        7.0674780545       13.4272108324
  H         4.8937726625       10.4044839330       29.5859362032
  H         4.3455062722       10.0575886756       31.2101646713
  C         5.8180706313        8.6568281724       30.2269268850
  H        -5.3772717979       10.4367306639       28.3604033452
  H        -6.0610095844        9.2372254538       27.4341619847
  C        -5.4485279854       10.7067431905       26.0253125572
  S        -0.7171985652       17.7011549382       31.0580019255
  N        -1.3099285641       17.3865476225       32.5535223275
  C        -1.9721919358       15.4086655740       33.9165162547
  H        -2.1643716568       13.2080152013       34.7469710345
  C         4.3442690052        9.0715565062       12.5158958919
  N         4.1694786243        7.7396184754       12.3210008364
  O         3.4976714981        5.9298250583       13.4827017831
  H         6.6970046990        9.2686310883       30.3687582759
  H         5.9389834911        8.2651978140       29.2407877093
  C         5.6703512027        7.5264074201       31.3270103572
  H        -4.7176579068       11.5478934668       25.9938467088
  H        -5.1476574737       10.1345796254       25.1518103068
  C        -6.8103771449       11.1715467777       25.8084536959
  C        -2.2981050818       16.1845081423       35.0467969352
  S         4.9766209259       10.1171568305       11.1767665244
  C         4.2669738120        7.0035972428       11.0438836943
  H         5.7778835490        7.9666334587       32.2697247278
  H         4.6932926559        7.0100142752       31.2269443259
  C         6.7506382975        6.5577172911       31.0867673321
  H        -6.8304963840       11.9903927319       25.1287626973
  H        -7.2704339681       11.4968594746       26.7757687341
  C        -7.8108597663       10.1144588850       25.2829066754
  H        -2.0761559305       17.3045407339       34.9186436086
  C        -2.7522513992       15.8689719301       36.2557043999
  H         5.1159814065        7.4906612622       10.4980689405
  H         4.6318704610        5.9983032288       11.3254293040
  C         2.9592059975        6.8119313204       10.2955355712
  H         7.4381678856        6.7427973834       31.9294698648
  H         7.3964240184        6.7691916687       30.2193901785
  C         6.3108747580        5.1386028278       30.8500280938
  H        -7.8313108064       10.0692692117       24.1829385984
  H        -7.5184851427        9.1778227287       25.6673237938
  C        -9.2095297665       10.4021334810       25.6942712877
  S        -3.3271236750       14.3600907690       36.8100586848
  C        -2.7321244782       17.0265781865       37.2176609714
  H         2.8580571651        7.4106159078        9.3666908538
  H         2.8715433407        5.8543702852        9.9494943480
  H         2.1111519632        6.9999367741       10.9503420971
  H         7.0388436550        4.4832253920       30.3792237893
  H         5.3993582414        5.2284755362       30.2138645821
  H         5.9858893965        4.6171765058       31.7410907941
  H        -9.2300926497       11.0542128619       26.5704655878
  H        -9.6919626680        9.4242230901       25.9952645083
  H        -9.8612067902       10.7420061246       24.8635967664
  C        -3.7545474301       15.2443876067       38.2617491456
  N        -3.3589416710       16.5631730448       38.3100114691
  O        -2.3105756967       18.1351116211       36.9226499602
  S        -4.4527998659       14.5103907607       39.7248043960
  C        -3.3672151210       17.4019600580       39.5038494605
  H        -3.3260437082       18.4274751936       39.3126293682
  H        -4.3009397599       17.1340404517       40.0369550889
  C        -2.1377991777       17.2064936084       40.4112841122
  H        -2.1039232116       16.1398488821       40.6777576136
  H        -1.2005911619       17.3788573971       39.7969284850
  H        -2.2422283933       17.8590724178       41.2529447166
