352
i=
  H         4.2684533806        1.4330853735       12.6464809752
  C         3.6994820556        2.3679190614       12.8111680814
  H         4.4210362679        3.1919523580       12.8152026994
  C         2.8365852163        2.5184524844       11.5890675377
  C         3.0304554350        2.4948902335       14.1580249977
  C         3.5653549049        2.6061101762       10.3119894368
  H         2.1943661682        3.3831147668       11.8363282689
  H         2.1874618393        1.6446477649       11.5491653070
  H         2.8874812788        1.4565425716       14.5623642516
  H         2.0438072964        3.0873236235       14.2083972352
  H         3.7238757492        2.8573500966       14.8629088306
  C         4.5427307103        1.4662324847        9.9771255752
  H         2.9236450654        2.7642184548        9.5324721641
  H         4.0546784807        3.5393785715       10.2520148814
  C         5.1919120579        1.7421258046        8.5915076988
  H         4.1656327076        0.4643420957        9.9563468613
  H         5.2571509885        1.2916214777       10.7146677642
  C         6.4913267964        2.6453869096        8.7157465549
  H         4.3188114412        2.1000672081        7.9756954654
  H         5.4884192317        0.8134374007        8.0963048835
  C         7.7504882416        2.0021267364        9.2180012104
  H         6.7321455138        3.1751563318        7.7977504158
  H         6.1242997861        3.4178947608        9.3619527884
  C         8.8493053603        3.0644209519        9.3618265374
  H         7.8690566246        1.2731125164        8.3935713360
  H         7.5823281066        1.4553165832       10.1245051803
  C         8.4512757277        4.4385172349       10.0504829158
  C         9.1319770685        3.8382409276        8.1036440267
  C        10.0772005611        2.5075462268       10.0493611835
  C         8.6726352235        5.5855772370        9.3030591416
  C         7.9730997759        4.7932635177       11.3282081501
  C         9.0353363521        5.2142478192        8.0144135927
  C         9.5562388704        3.2707617922        6.8679423439
  H         9.7145834936        2.2626300410       11.0172944824
  H        10.3497025737        1.5182254133        9.6214038470
  C        11.3291097021        3.4252235308       10.2601852524
  S         8.3506020819        7.0405748779       10.0960413004
  C         7.9421569782        6.1663044925       11.5032365189
  H         7.7324610364        3.9870981500       12.0992588877
  C         9.3670384376        5.9118589284        6.8591851334
  H         9.5635065730        2.1899746675        6.9029398593
  C         9.9460991439        3.9466475260        5.7532965447
  H        11.0287785271        4.3582399482       10.6735805821
  H        11.7735778582        3.6424747649        9.2894003615
  C        12.2823267053        2.7551269505       11.2530826064
  C         7.4674612305        6.8945053208       12.7704197215
  C        10.0084107481        5.3131683684        5.7493304887
  H         9.1719203392        7.0323378540        6.9651611763
  C        10.4544827724        3.5806725107        4.5326036595
  H        13.2448454492        3.1612362689       11.2223547618
  H        12.4569559042        1.7828269909       10.9846428729
  C        11.8012727227        2.7553002285       12.7522650516
  C         7.5150192720        8.2614123651       13.0580673704
  C         6.9595215572        6.0737267574       13.8110926310
  C        10.4810007460        6.0279394083        4.4942698528
  C        10.7319021208        4.6783391235        3.7584108258
  S        10.6469615735        2.1112019259        3.7368277159
  H        11.0345121847        3.4877769297       13.0989334783
  H        11.3382395619        1.7745387746       12.7556256792
  C        12.9484076702        2.9076190687       13.7299204729
  N         7.8876342840        9.2705839900       12.1832685816
  C         7.2706884505        8.7990718247       14.3333873794
  C         6.7329778567        6.6021711332       15.0422037123
  H         6.7862886965        4.9681813460       13.8086081157
  C        11.8084609840        6.8758625654        4.7625889881
  C         9.3950509800        6.8197258960        3.7757059046
  C        11.1996633531        4.3235931929        2.5040141141
  C        11.2838252955        2.9754767941        2.3451389253
  H        12.7362457781        3.6263949425       14.4523968915
  H        13.9067937162        3.2445873300       13.3229810344
  C        13.1197213701        1.6249407565       14.5467946577
  S         7.7056840914       10.6848238181       12.9226519872
  N         7.3692537767       10.1379269006       14.4253995179
  C         6.8891109611        8.0052677906       15.4339931277
  H         6.5273987428        5.8545086375       15.8173682343
  H        11.4789232201        7.5394393223        5.5044248520
  H        12.0733111319        7.4868994368        3.8965442581
  C        13.0685671285        6.0379637730        5.3061843633
  H         9.1173735806        7.5975221132        4.4784690489
  H         9.8935115240        7.3580452531        3.0047894781
  C         8.1519896281        6.0513217710        3.3036051917
  H        11.5943190800        5.1610375997        1.8596028001
  C        11.5647591601        2.2609002600        1.0622510484
  H        12.4434083408        0.8273778800       14.3222348778
  H        14.0848521775        1.2497031138       14.3413445087
  C        13.1182825239        1.8321838248       16.0569017213
  C         6.6961466662        8.5096974439       16.7569824154
  H        12.9847732396        5.5687118979        6.3155755592
  H        13.3310154049        5.1987626175        4.6943414695
  C        14.2504927565        6.9465177709        5.3266362847
  H         7.7898104045        5.5452672464        4.1965664576
  H         8.4609894572        5.3464748610        2.5164327155
  C         7.1532045625        7.0636998111        2.7582549910
  C        11.7001219497        0.8217236975        0.8509639475
  C        11.8888946094        3.0812449345       -0.1837651479
  H        13.7354495846        2.6470418256       16.3405454553
  H        13.5066637861        0.9901798200       16.6074702448
  C        11.6815834110        1.8787792073       16.6020590943
  H         6.5790547873        9.5090684145       16.8304558376
  C         6.3282182993        8.0214849509       17.9799515774
  H        14.1313826541        7.4477262358        6.2226773067
  H        14.3135464424        7.6083304668        4.4353346747
  C        15.6637810824        6.2903083074        5.5775800581
  H         6.8555381647        7.6087461161        3.6466220682
  H         7.6612384778        7.8630501181        2.1863275767
  C         5.9697723713        6.3294291748        2.0837481320
  N        11.3720755487       -0.1104774907        1.9031817659
  C        12.0213231333        0.2287722422       -0.2996863837
  C        12.1952446468        2.4646878962       -1.3920507050
  H        11.8842259165        4.1570508495       -0.2454051573
  H        11.3131385342        0.8538711618       16.9008709289
  H        10.9093885531        2.2972350665       15.8555154839
  H        11.5804435464        2.5689984985       17.3720776729
  S         5.9130628519        6.3945680285       18.2758944567
  C         6.3858371081        8.9579397433       19.1698468079
  H        15.7658640656        5.4638366814        4.8433569625
  H        16.5853261128        6.8971510387        5.3693363296
  C        15.7551093516        5.6649568364        6.9262382783
  H         5.5307008824        5.6086688241        2.7550908780
  H         6.3770249724        5.6569707575        1.4051493816
  C         4.9899983692        7.1736292005        1.2594993930
  S        11.5538813986       -1.5843778345        1.2573028691
  N        12.0288210787       -1.1931031211       -0.2318624746
  C        12.2383618340        0.9751710683       -1.5053020124
  H        12.3221349257        3.0710569943       -2.2663068270
  C         5.6643092134        6.9306091947       19.9368812737
  N         5.9178298363        8.2634647071       20.1722453189
  O         6.6029235845       10.1776255546       19.1764070751
  H        15.7396575145        6.3995515373        7.7833686807
  H        14.7628828866        5.1740204896        7.0304691559
  C        16.8777076184        4.6863873122        7.0926360405
  H         5.4878052325        7.4998134725        0.3060846404
  H         4.3163060673        6.4280230169        0.9059479152
  C         4.3256076316        8.3890629274        1.9896729250
  C        12.4805480759        0.1488960084       -2.6592587021
  S         5.1360977451        5.8925348613       21.2015183674
  C         5.7054481647        8.8539483219       21.4817061555
  H        16.6436073421        4.1139138007        7.9626438742
  H        16.7817477215        3.8903285727        6.3481801927
  C        18.2376997524        5.3871005801        7.2069185381
  H         5.0474480829        8.9421045658        2.5619528761
  H         3.5872212020        7.9768626630        2.5858379254
  C         3.6516560747        9.3350495890        1.1347185412
  H        12.3874900939       -0.8787712372       -2.5112532364
  C        13.0076992250        0.4045099309       -3.8774867104
  H         5.2335002273        8.3497516626       22.2740020349
  H         5.3070287950        9.8059164200       21.2695505518
  C         7.1013956770        9.0430869063       22.2102262006
  H        18.7506272497        5.0050642904        8.1256324381
  H        17.9943903129        6.4660317625        7.1679174242
  C        18.9718334945        4.9085433576        5.9437506610
  H         3.3427581555        8.8342535174        0.1604005115
  H         2.7946836259        9.6567411015        1.6373679338
  C         4.5949666059       10.5487684113        0.8256908552
  S        13.6225873463        2.0034578720       -4.2605656517
  C        13.2531726603       -0.6919896617       -4.8146282368
  H         7.6245538244        9.9040235904       21.9218282262
  H         7.7363818389        8.2002823350       21.8788597931
  H         7.1164727057        8.9237865483       23.2864134227
  H        20.0066944466        5.2639851066        6.0823807746
  H        18.9522351925        3.8179171071        5.9551926113
  H        18.5346721183        5.3487376273        5.0089457024
  H         5.6913351537       10.4413575318        1.0816756678
  H         4.6647538821       10.7415429951       -0.3013525598
  H         4.1880866798       11.4699189173        1.2331778728
  C        14.0940127650        1.1931747963       -5.7931863915
  N        13.9931447673       -0.1748375045       -5.8502541649
  O        12.8092360560       -1.8074942123       -4.6384509205
  S        14.6322606904        2.0055284335       -7.3179874023
  C        14.4038688453       -1.0380421057       -6.9358061199
  H        14.4652376564       -2.0554761341       -6.5358768661
  H        15.3079955064       -0.7547004890       -7.4056309866
  C        13.2877368346       -1.1503861613       -8.0266197617
  H        13.4330434970       -0.2243140340       -8.5903295039
  H        12.2995917854       -0.9459757561       -7.4407028225
  H        13.2657162467       -2.0624833211       -8.6718137701
  H        -4.0252519484       14.6552977348       16.6535281958
  C        -3.6948624715       13.6228470657       16.4124223406
  H        -4.6724319394       13.1542749188       16.3880294160
  C        -2.6919066911       13.2018491941       17.5150477842
  C        -3.1006627935       13.5834065838       15.0039077568
  C        -3.1453946556       13.4286923809       18.9596970911
  H        -2.3156987131       12.2255860550       17.4419814082
  H        -1.9637272535       13.9719598380       17.4711282621
  H        -3.6882622854       12.9355824692       14.3539584497
  H        -3.2498782960       14.5269368801       14.5542174202
  H        -2.0308730415       13.2293275210       14.9361572454
  C        -1.9800098511       13.2008577832       19.9438233783
  H        -3.9327288231       12.7739655141       19.2422534652
  H        -3.5609322137       14.4291645751       19.0747602952
  C        -2.2943238195       13.5018904916       21.4304261260
  H        -1.6262630671       12.1470827873       19.6608948466
  H        -1.1556879279       13.8638845746       19.5379617972
  C        -1.2168083931       12.8000694201       22.1861661774
  H        -3.3086235414       13.0174869560       21.7369970954
  H        -2.3151159896       14.5345509837       21.5913468112
  C        -0.0071544067       13.6056221729       22.5546938931
  H        -1.6525540873       12.5499764307       23.1277621906
  H        -0.9984710157       11.8516774145       21.6769425088
  C         1.1735945225       13.0144233759       23.3853236936
  H         0.4396968283       14.1025048373       21.6747955493
  H        -0.3443926601       14.4446739613       23.1973052645
  C         1.5318505710       11.6809802092       22.6924878372
  C         0.6505091433       12.3754976500       24.6134836949
  C         2.4146831579       13.9537966504       23.4945396289
  C         1.1727859710       10.5722602563       23.4674785353
  C         2.1299642003       11.2963693698       21.4563080062
  C         0.7121735797       10.9902951669       24.7424542804
  C         0.1711269434       13.0087420896       25.7765445042
  H         2.6642963165       14.3104408897       22.5272329324
  H         2.1930933946       14.8172673648       24.1442616276
  C         3.5900621641       13.2838433224       24.0806913767
  S         1.4098282899        9.0693726535       22.7250596106
  C         2.0444539241        9.9004270885       21.3488375770
  H         2.5122520768       12.0183638432       20.8493911012
  C         0.3074809338       10.4021595131       25.9222260706
  H         0.2365824444       14.0862336623       25.7427837615
  C        -0.1720484871       12.4098322634       26.9515346856
  H         3.7295442687       12.3613842993       23.5831264611
  H         3.3672125186       13.0227046721       25.1640208698
  C         4.9221441368       14.0886400876       24.0205873585
  C         2.4947623905        9.2020202497       20.1230955176
  C        -0.1071656361       11.0390811991       27.0888948731
  H         0.3647145253        9.3054433227       25.9429491255
  C        -0.7407339601       12.8045635578       28.1364516076
  H         5.7127748835       13.7725582708       24.6113288670
  H         4.6005894899       15.1220017631       24.4029832697
  C         5.4066046261       14.3904792572       22.6594145679
  C         2.4236012755        7.8252446466       19.8896959750
  C         3.1049544672       10.0050337477       19.0013464907
  C        -0.5604785034       10.4012848953       28.3566590594
  C        -1.0290311322       11.7199483942       29.0124834498
  S        -1.1891291331       14.2715791736       28.7969433841
  H         6.1367191190       15.2775346041       22.7115581660
  H         4.6668974999       14.8849325584       22.0697013786
  C         6.0459512621       13.2300774546       21.9389226731
  N         2.0727915970        6.8235134493       20.8108116039
  C         2.5791229035        7.2950081454       18.5525659566
  C         3.3411729273        9.4561348588       17.7611129716
  H         3.2702256870       11.0598618470       19.1219665025
  C         0.4871025911        9.7047445748       29.2438979487
  C        -1.9247881799        9.6406351834       28.1325500981
  C        -1.5398052224       12.1457693672       30.2160842621
  C        -1.7482694732       13.4696838863       30.2417358646
  H         7.0170861592       13.2295915472       22.3554566853
  H         5.6205701057       12.3204155632       22.3240519751
  C         5.9990467786       13.2955877742       20.4233842751
  S         1.8557983900        5.4267294550       19.9613335825
  N         2.3987271258        5.9492327005       18.5362148465
  C         2.9293758596        8.0666947347       17.4836058165
  H         3.5563307726       10.0443816805       16.9685026304
  H         0.5039264647        8.6181613600       29.0856035114
  H         0.0647654095        9.5351421316       30.2890673963
  C         1.7871138786       10.4766768712       29.4591072359
  H        -1.7333576223        8.8363909312       27.3887256285
  H        -2.2204131724        9.0582728775       29.0483886751
  C        -3.0943526099       10.4154038405       27.3895231500
  H        -1.7376520514       11.3905899526       30.9774524087
  C        -2.2306516646       14.1690064809       31.5111552708
  H         5.5016667555       14.0888584123       19.8743832900
  H         5.3678074364       12.4027610045       20.1472577163
  C         7.3912220238       13.2779864180       19.7577342338
  C         2.9967565631        7.4566493595       16.1661639173
  H         2.1761911565       10.8053946132       28.4597515224
  H         1.5628778415       11.3428364189       30.0881686815
  C         2.7741733475        9.5650871845       30.1663981502
  H        -2.6978858922       10.8146024885       26.4936093895
  H        -3.3748100807       11.3069554902       27.9157761700
  C        -4.3390072396        9.6705063510       27.1476784344
  C        -2.2533253148       15.6204274121       31.5915261858
  C        -2.3589835562       13.3718228383       32.7862611042
  H         8.1746477125       13.9347872430       20.1199873545
  H         7.8251368929       12.2408843611       19.8172485434
  C         7.1960289084       13.4271326458       18.2746782339
  H         2.8940382458        6.3845911235       16.2479051385
  C         3.4503843504        7.8575610418       14.8870636604
  H         2.9981608857        8.7161387271       29.6138151280
  H         2.2890160921        9.1652307007       31.0053427906
  C         4.1248050905       10.3255496100       30.5851326883
  H        -4.3245040637        9.1743166801       26.1997574200
  H        -4.4547715457        8.9800924643       27.9792482156
  C        -5.5175853723       10.6030802233       27.1232236728
  N        -1.8533190093       16.5046656695       30.5910428051
  C        -2.3013725887       16.2239744632       32.8329881742
  C        -2.5010737887       14.0035566724       34.0011603741
  H        -2.2419609810       12.3191147523       32.7590028382
  H         7.9062178064       12.7005486330       17.7918441620
  H         6.1916797727       13.0114213004       18.0352212735
  H         7.1808392214       14.3988091998       17.8444395988
  S         3.7032557714        9.4207796982       14.3975872916
  C         3.6110104070        6.8232574799       13.8744911672
  H         4.5453980351       11.0333149565       29.8856499221
  H         3.7910524529       10.8945102642       31.4575011266
  C         5.2712791520        9.2949184461       30.7664942697
  H        -5.4111166493       11.4302743631       26.4637016822
  H        -5.7714678506       10.9382822629       28.1273521145
  C        -6.7060059352        9.7368203430       26.4798997950
  S        -1.8232830686       17.9680908650       31.2398317182
  N        -2.1685802008       17.5399191728       32.7603511964
  C        -2.4501248151       15.4924658976       34.0778302667
  H        -2.6135200639       13.4420256116       34.9010639761
  C         3.9217743692        8.7479908621       12.7972071088
  N         3.9172419620        7.4164694631       12.7253214499
  O         3.5563182311        5.6326676685       14.0865203418
  H         6.2463660847        9.8219587531       31.0396934022
  H         5.4979888350        9.0506515347       29.6690680321
  C         5.0408112355        8.0219402993       31.5782955543
  H        -6.3532171653        8.8793788343       25.9796184706
  H        -7.3050613369        9.3166452324       27.3092943256
  C        -7.6601654206       10.5029900958       25.5183739063
  C        -2.7161368722       16.2485026038       35.2815542067
  S         4.3590533651        9.6698652781       11.3341500405
  C         3.8684526247        6.6954959964       11.4530107622
  H         5.0551237732        8.3441634554       32.6337158966
  H         4.1430167392        7.4659134074       31.3314816217
  C         6.2129304172        7.0842815043       31.3401915370
  H        -7.1884454997       10.6174932304       24.5620448323
  H        -7.7668956122       11.4542433713       26.0113862180
  C        -9.0257785168        9.8659283150       25.3370245191
  H        -2.3309949558       17.2653046925       35.2086471582
  C        -3.2251284516       15.9312262275       36.4981738348
  H         4.7275681569        7.0770919129       10.8885824033
  H         4.1614775910        5.6970588856       11.6335798610
  C         2.5207650768        6.5682805433       10.7650026665
  H         6.1784094925        6.3056032176       32.1205987202
  H         7.1270241685        7.6079501956       31.5149644224
  C         6.1086208331        6.4239365378       30.0170327579
  H        -9.5822627772       10.2212814815       24.4695504673
  H        -8.8858341547        8.8186952315       25.0008771089
  C        -9.8855234356        9.9239981002       26.6242179997
  S        -3.7412138985       14.4625073643       37.1162582456
  C        -3.4038394008       17.0929165446       37.4441832047
  H         1.6951258326        6.1164223916       11.3694272182
  H         2.0717808357        7.5673558685       10.6171267603
  H         2.4978414191        6.0578228986        9.8063773974
  H         6.6215791437        5.4447783520       30.0448113372
  H         6.7279425023        7.0301774946       29.2435696255
  H         5.0916367975        6.4589356545       29.5993554610
  H        -9.3299453139       10.0720718381       27.5277165107
  H       -10.4869839813        9.0046685522       26.8755234705
  H       -10.5677360429       10.7531101954       26.4582917122
  C        -4.0969847444       15.3061920951       38.6264352379
  N        -3.8563944711       16.6461342121       38.6320801691
  O        -3.0774897812       18.2827271854       37.1929232162
  S        -4.8678104871       14.4700031427       40.0139452040
  C        -4.1311671974       17.6198908172       39.7563704982
  H        -4.5196235365       18.5862425683       39.2971478124
  H        -4.8721169241       17.2582736302       40.4298629842
  C        -2.7599989850       17.9279365096       40.4625737412
  H        -3.0607113771       18.5845917032       41.2233459418
  H        -2.2492944687       17.0642107372       40.9095850761
  H        -2.1498065298       18.4930737018       39.7071320137
