352
i=
  H         5.0062239629        2.7386950824       12.5576725220
  C         3.9213466729        2.6093600680       12.3501865837
  H         3.4570501176        3.6504158635       12.1498234426
  C         3.6651445007        1.6175047561       11.2567510206
  C         3.4314356478        2.0606691940       13.6406507941
  C         4.2122740654        2.1120459211        9.9248180542
  H         2.6555873943        1.3867739078       11.1681018926
  H         4.1038722251        0.7543224613       11.6155528592
  H         2.3446082689        1.9148832684       13.6577034002
  H         3.6369785603        2.7645886618       14.4830573769
  H         3.7785970246        1.0248051171       13.9075489596
  C         5.4850928687        1.3199689151        9.7469935723
  H         3.4553116302        1.8977431913        9.2405410214
  H         4.3504591957        3.2358682390        9.9867809256
  C         6.1146666827        1.4888566745        8.3222309064
  H         5.3527345342        0.2793954777        9.8312018147
  H         6.1772558802        1.5560975552       10.5415006637
  C         7.3000379718        2.4821601668        8.4896096824
  H         5.2582361411        1.8164338029        7.6723631741
  H         6.2895595503        0.5189792395        7.8223680546
  C         8.5015592718        1.9894312507        9.2596132280
  H         7.5217146926        2.6685090849        7.4486516815
  H         6.9596183901        3.4166263677        8.8735744694
  C         9.6857053590        2.9604250032        9.1603851767
  H         8.7980908291        1.0957003320        8.6589977683
  H         8.1997208358        1.6750787247       10.2462235777
  C         9.2314067499        4.3119942220        9.8387963839
  C         9.9885811764        3.6450148549        7.8396779094
  C        11.0369472213        2.4206792647        9.7747751114
  C         9.3137036354        5.3868135528        8.9750022863
  C         8.7642317213        4.6835964873       11.0916201624
  C         9.8395886952        4.9827436311        7.7401828733
  C        10.4715428823        3.0000218719        6.6812952652
  H        10.7001394228        1.9241573686       10.7175507290
  H        11.4537101634        1.6759119711        9.1070393370
  C        12.0587109426        3.4420330843       10.2064500101
  S         8.8956347899        6.8462121043        9.7267196925
  C         8.3912619443        6.0050681891       11.1855185373
  H         8.7172923611        3.9303801134       11.8426684185
  C        10.0986376964        5.5862072226        6.5327527224
  H        10.6044279688        1.9578019847        6.6465898253
  C        10.7094529808        3.7216878760        5.5237896131
  H        11.6691769236        4.3714010984       10.5842947257
  H        12.7229700268        3.7040382078        9.3524173051
  C        13.1180635876        2.9047247345       11.2867240244
  C         7.8968753350        6.7136836386       12.4179000448
  C        10.6232228546        5.0803342423        5.3802103770
  H         9.8722788458        6.6644728249        6.5648202136
  C        11.0345391814        3.3348426218        4.2441433517
  H        14.0915939582        3.4841999642       11.2524231392
  H        13.3963941072        1.8190473079       11.1175410287
  C        12.5530072619        2.8735161255       12.6904181238
  C         7.9660265701        8.1310545690       12.6496659668
  C         7.2547172180        5.9090050097       13.4458488717
  C        10.8235894056        5.7759298429        4.0987493707
  C        11.2140551616        4.4072029023        3.4232785660
  S        11.3619983179        1.7897027357        3.5158584214
  H        11.9893274130        3.8156070674       12.8719669290
  H        11.7261609065        2.0995822743       12.6685226641
  C        13.6466073421        2.4017924589       13.7217341950
  N         8.4164556116        9.1620723274       11.7906762375
  C         7.5741010258        8.6466570696       13.8925451139
  C         7.0784980939        6.4520647976       14.7130404482
  H         7.0352855183        4.8757495982       13.3471700043
  C        12.0890144196        6.6137103996        4.1190685784
  C         9.6259990067        6.4450037596        3.2766201283
  C        11.6482777376        3.9901652236        2.1238120197
  C        11.6537321116        2.6066960236        2.0004014441
  H        14.5598229270        2.9721075433       13.7440045047
  H        13.8306962528        1.3169934945       13.5394351019
  C        12.9948099850        2.5412374475       15.1384224568
  S         8.1107341506       10.5963638300       12.4633036769
  N         7.6708556051       10.1035593729       13.9185342350
  C         7.2164234939        7.9050911819       15.0307025082
  H         6.6714310064        5.8074043495       15.5322668203
  H        11.7796207205        7.5573031207        4.6097307876
  H        12.3164675047        6.7384389826        3.0958769683
  C        13.2711063215        5.9740651678        4.9039446368
  H         9.2616779754        7.3165051707        3.8648472139
  H        10.0414467928        7.0846234970        2.4822383827
  C         8.4824583654        5.5376270237        2.8409953269
  H        11.7820935461        4.7240015132        1.3411608740
  C        11.8270335419        1.8501322525        0.7275251581
  H        12.5198945797        3.5165840913       15.1740066514
  H        12.1937595660        1.7573962030       15.3108505881
  C        13.9864643835        2.3115723444       16.2876424109
  C         6.9441970061        8.5956711486       16.2542304922
  H        13.1021644270        5.8322678825        6.0004910776
  H        13.4627794313        4.9990716637        4.4807584507
  C        14.6024034733        6.7053832910        4.8283449739
  H         8.1015856588        5.0045946707        3.6753497342
  H         8.9922780845        4.8348200810        2.2049079050
  C         7.3789486672        6.2774826882        2.1094386109
  C        11.8468721572        0.4124490608        0.5749630188
  C        11.9474267073        2.6042110788       -0.5322089837
  H        14.8942057487        2.8847072852       16.0879861774
  H        14.1411490475        1.1991574221       16.4866620962
  C        13.4032506366        2.9012254799       17.5920554824
  H         7.1610850676        9.6470494527       16.3157251628
  C         6.6284090611        8.0806323863       17.5711286161
  H        14.4574141438        7.5945367286        5.4190073149
  H        14.8530362141        7.0200641272        3.8166232722
  C        15.7260623229        5.8156996655        5.3880583319
  H         7.3033231626        7.2922833104        2.4870537562
  H         7.6021414320        6.4207129037        1.0327517933
  C         6.0387352470        5.5614512988        2.2868439554
  N        11.5604628366       -0.4999737867        1.6622744344
  C        12.1059326703       -0.2337272130       -0.6010648378
  C        12.1430890989        1.9516796004       -1.7421435693
  H        11.9963502416        3.7141754550       -0.4201981133
  H        12.4330301572        2.4716610454       17.6901030362
  H        13.2729013966        4.0203992821       17.3583604667
  H        14.1206224207        2.7834099157       18.2774621494
  S         6.3030747395        6.4599901874       18.0287212692
  C         6.4774889262        9.1225694548       18.7003140794
  H        15.2900616727        4.9154533615        5.7424150046
  H        16.5319794924        5.5744143570        4.7287258649
  C        16.5240420823        6.4471714773        6.5039261828
  H         5.6813439747        5.6184930944        3.3120560740
  H         6.2430624082        4.5020299413        2.0119574376
  C         4.9739774030        6.1976584053        1.4092678736
  S        11.5333663805       -2.0017021736        0.9821878537
  N        11.8282348664       -1.5600332667       -0.5306977708
  C        12.2409037037        0.4646300303       -1.8166025057
  H        12.1888282937        2.5011606145       -2.6488982480
  C         6.0407425115        7.1061532011       19.6243354245
  N         6.0348808309        8.4953458119       19.7851842601
  O         6.8425293174       10.2840404251       18.5515110710
  H        16.9982354461        7.3305730560        6.0830155022
  H        15.8161791158        6.7755859313        7.2839757493
  C        17.4830585909        5.4068820918        7.1845446217
  H         5.3694540239        6.3668942810        0.4263142434
  H         4.1037100770        5.5649254662        1.2377768084
  C         4.4402954153        7.5999974158        1.9341710146
  C        12.4884823451       -0.2772194237       -3.0014824081
  S         5.5921659352        6.1262298263       21.0120880473
  C         5.9552207572        9.2401602874       20.9803378240
  H        16.9194600572        4.9281032689        7.9768309782
  H        17.6247062987        4.5250091396        6.5396357689
  C        18.7329112178        6.0254891145        7.6380249430
  H         4.9645100882        7.8020161937        2.8980386462
  H         3.3486831342        7.5014659457        2.0263778615
  C         4.7190404967        8.7385228624        0.9795611081
  H        12.4112280738       -1.3423571086       -2.8285756333
  C        13.0131133786        0.0976788938       -4.2122896823
  H         5.1780092803        8.9499868177       21.6392778008
  H         5.6844894915       10.2506332570       20.6770758497
  C         7.2849765132        9.1982017400       21.6892076182
  H        19.1674330233        5.5628744159        8.5125292894
  H        18.6705915793        7.0768683389        7.8365929222
  C        19.8560567324        5.9587226329        6.6147920541
  H         5.7645230274        8.7359809614        0.6809283021
  H         4.0909571043        8.7335100072        0.0315017172
  C         4.4827289407       10.0285801145        1.6963191088
  S        13.2999726326        1.6861872094       -4.7295247556
  C        13.3033862910       -1.0086081349       -5.0961999377
  H         7.9601401129        8.6808848182       21.0245943688
  H         7.0824214828        8.5095076402       22.4907246475
  H         7.6376041533       10.1671321257       21.9379286352
  H        20.0820443122        4.9328738243        6.1093677979
  H        19.7056471622        6.6133845796        5.7496905973
  H        20.7765803838        6.3187679869        7.0233260755
  H         5.3303298198       10.2456093529        2.3389180457
  H         4.2477704376       10.7990245351        0.9180153180
  H         3.7583487025        9.8406481914        2.4927341648
  C        13.6631506901        0.8513246989       -6.2246497514
  N        13.7408367527       -0.4782553731       -6.2220552791
  O        12.9415139995       -2.1865834362       -4.8918725423
  S        14.2104946221        1.6801947594       -7.6329339161
  C        13.9860481153       -1.3185767612       -7.3535111662
  H        14.2736306730       -2.3467674834       -7.0160860550
  H        14.8570747924       -0.9172296314       -7.8842891608
  C        12.8095546128       -1.4019734352       -8.2942380501
  H        12.8386534025       -2.2957578964       -8.9196216458
  H        12.8712323862       -0.5736152780       -8.9418175235
  H        11.8229575951       -1.4553015198       -7.7578054277
  H        -3.2514328105       14.9759950130       16.3036190289
  C        -3.1053469837       13.8750721504       16.3377387515
  H        -4.0978887452       13.5643276721       16.8419748533
  C        -1.9131679619       13.5766727882       17.2511642459
  C        -3.0443359688       13.3354719619       14.8919409594
  C        -2.3561032463       13.5117055728       18.7417393542
  H        -1.4182045143       12.6241477060       17.0297621816
  H        -1.1517645161       14.4237272201       17.0948920037
  H        -1.9868966309       13.4476224279       14.5152893481
  H        -3.3679518364       12.3044087471       14.8205532516
  H        -3.6079875365       13.9082334399       14.2275073478
  C        -1.3590618285       13.2944857247       19.8968306953
  H        -3.0023837658       12.7634712984       18.9508075146
  H        -2.9176540353       14.4193193383       18.9359261810
  C        -2.0414235532       13.4795711597       21.2801936566
  H        -0.7607240769       12.4147646807       19.7800298268
  H        -0.4954631397       14.0836118411       19.7371957321
  C        -1.1733014034       13.1221428581       22.4766723916
  H        -2.9532735123       12.8943713785       21.2636418034
  H        -2.4390359136       14.4965289809       21.3233970200
  C         0.0406375150       14.1038577791       22.6722360564
  H        -1.8002527001       13.0168317158       23.3542881125
  H        -0.8776728173       12.0180507672       22.2945693823
  C         1.2525154559       13.3722726324       23.3442339875
  H         0.4792025394       14.3740539682       21.6615466778
  H        -0.1567016356       14.9896993912       23.3091431454
  C         1.6554039014       12.0410556674       22.6663769327
  C         0.8356442303       12.6735477965       24.6591538080
  C         2.4214784022       14.3563596295       23.4955522703
  C         1.4768049723       10.9804191401       23.5055852560
  C         2.0933716775       11.6196903070       21.3775596780
  C         1.0342417767       11.3346628995       24.7022625043
  C         0.2608471782       13.2667549287       25.7763278747
  H         2.5347265459       14.8932293576       22.5928916273
  H         2.2376010483       15.0900694308       24.2279824586
  C         3.7863780662       13.6608828155       23.7603687474
  S         1.7898175469        9.4344378429       22.8047551422
  C         2.2182891420       10.2481295163       21.3510582174
  H         2.2751837941       12.3320675906       20.5287661610
  C         0.5918844530       10.6636869619       25.8673561796
  H         0.0066826838       14.3110703758       25.6975278240
  C        -0.1084673624       12.5816661952       26.8934020830
  H         4.0895056330       12.9622503645       23.0153521673
  H         3.7602450632       13.0426851452       24.6683344722
  C         4.8312239167       14.6974797651       23.9699709225
  C         2.6686032140        9.5615333351       20.1134824760
  C         0.0915890277       11.2443880984       27.0354165032
  H         0.7699411805        9.5832312976       25.8416506794
  C        -0.6030171557       12.8789124918       28.1404913501
  H         5.5804912808       14.4269469422       24.6989929290
  H         4.3291651092       15.6527745343       24.3722093907
  C         5.4185485499       15.1197621185       22.6674992877
  C         2.7662177276        8.1392725502       19.8746708170
  C         2.8976185339       10.4136646375       18.9381187469
  C        -0.3001730536       10.4996555282       28.2531470375
  C        -0.6587980162       11.7813666789       28.9590285597
  S        -1.1515592589       14.3208204961       28.8378580145
  H         5.7820705058       16.1510822606       22.8467780379
  H         4.6376244529       15.0275146474       21.9219453776
  C         6.6543932176       14.3199726426       22.1818126738
  N         2.4857732656        7.2067574660       20.8263293064
  C         3.0209804691        7.5267375792       18.6545024979
  C         3.1402185053        9.7806463749       17.7099126005
  H         2.6836576697       11.4539317664       18.8591082409
  C         0.8124306765        9.6796994281       28.9187849656
  C        -1.5080999129        9.6001486053       28.0007998587
  C        -1.0817995274       12.0988041004       30.2434960832
  C        -1.4216606820       13.4738838073       30.3269774242
  H         7.4539539448       15.0021852482       21.8305327118
  H         7.0477929403       13.7920673638       22.9968821986
  C         6.3430071025       13.2929630975       21.1662044781
  S         2.5656653948        5.7085415804       20.2230957445
  N         2.8333183269        6.1210560597       18.6818116202
  C         3.1804680826        8.3066944076       17.5562080989
  H         3.4061689599       10.4361436453       16.9081831263
  H         1.2373366003        8.9069872478       28.2454562262
  H         0.3811997668        9.0456561556       29.6704829434
  C         1.9782720019       10.4444392812       29.5423372453
  H        -1.2397808287        8.7163968670       27.4020053907
  H        -1.9605301782        9.2582718616       28.9433755585
  C        -2.7060805013       10.3514589857       27.3294666427
  H        -1.1096823245       11.3725627348       31.0220018293
  C        -1.7831614875       14.1448254541       31.5734044595
  H         5.3454624828       12.8001685576       21.3510214592
  H         6.9860387528       12.4473555837       21.1847507148
  C         6.4225248704       13.8638615203       19.7498722660
  C         3.3800157859        7.6391939744       16.2381945529
  H         2.4769825393       11.1699550464       28.8687870764
  H         1.5858206434       10.9225319255       30.3707822216
  C         3.0839013285        9.4377041561       29.8648042011
  H        -2.4763463128       10.8276860044       26.3723898837
  H        -3.0641042394       11.0756973622       28.0207783890
  C        -3.9933513911        9.4739325360       27.1306878853
  C        -1.8272941231       15.5152790752       31.7761688670
  C        -1.9198109550       13.3096011931       32.8493869017
  H         5.5942766909       13.4152710165       19.1174422447
  H         6.2090682463       14.9096509100       19.7982833434
  C         7.8510254081       13.6991271328       19.1293147839
  H         3.3365105768        6.5443571054       16.2989202494
  C         3.7719816374        8.0690312811       15.0028047613
  H         3.4437135575        8.7924757519       29.0882748333
  H         2.5591451753        8.6244859893       30.4094846701
  C         4.0093633249       10.0345176658       30.8813794226
  H        -3.8886888699        8.8427367049       26.1900750222
  H        -4.4393122236        8.9333286327       27.9929413108
  C        -5.0882329403       10.5063213155       26.7781337439
  N        -1.7256595935       16.5173045624       30.8062424266
  C        -2.1312160347       16.0692415687       32.9939695222
  C        -2.1367921640       13.8719523405       34.0925977413
  H        -1.8857055234       12.2142726277       32.8710562562
  H         8.6626859467       13.8437940129       19.8658253429
  H         7.9341236833       12.7368731932       18.6093816360
  H         8.0499472541       14.4422499557       18.3863463870
  S         4.1055034025        9.6580459255       14.4693139955
  C         3.8179829860        7.0284008818       13.9332420791
  H         3.7425574816       11.0150474183       31.2176673261
  H         3.9904781651        9.4176629342       31.8183315630
  C         5.4681997388        9.9908589902       30.4422902089
  H        -4.7982151413       11.2307809471       26.0213607029
  H        -5.3899801502       10.9735917735       27.7063938995
  C        -6.3228012684        9.7993498186       26.0536383793
  S        -1.7293217608       17.9702069169       31.5214779205
  N        -2.2724377168       17.4768801816       32.9711437471
  C        -2.3876465610       15.3250992796       34.1730157437
  H        -2.2056076999       13.2511653383       34.9450204347
  C         4.3842710093        8.9994918815       12.9057329674
  N         4.3193395201        7.6463306155       12.8414169266
  O         3.5959277319        5.8439855668       14.1567331956
  H         6.0526826092       10.8639536846       30.8226876042
  H         5.5761586532       10.0913218873       29.3772391527
  C         6.2942483932        8.6934389656       30.8555485727
  H        -5.9848432730        9.2865085875       25.1467341553
  H        -6.5324380190        8.9285743482       26.6347672087
  C        -7.6438601606       10.6155724899       25.8471478229
  C        -2.7699032103       16.0942181447       35.2825635468
  S         4.7929365434       10.0535130080       11.4947410289
  C         4.6510255115        6.9036897024       11.6268108076
  H         7.2838562200        8.7286678819       30.4198905566
  H         6.4018742863        8.7966093497       31.9186199162
  C         5.5970134889        7.3971432009       30.5887771858
  H        -7.2204047807       11.5159935179       25.3156524690
  H        -8.1149749640       11.0261325922       26.7919740549
  C        -8.6682205524       10.0263591915       24.9662733707
  H        -2.5440880247       17.0908182579       35.2347386848
  C        -3.0890081367       15.6578013893       36.5318878190
  H         5.4103357421        7.4459688218       11.0374051890
  H         5.0616158723        5.9166846727       11.8111928113
  C         3.4457943120        6.8260303473       10.6887550614
  H         5.4415815563        7.2898501818       29.5220292699
  H         4.6662256207        7.4531969208       31.1312349481
  C         6.2646687199        6.1480332320       31.2181003261
  H        -8.9159438600       10.6645111617       24.1222807170
  H        -8.3528749796        9.1275620084       24.4999092103
  C        -9.9235447399        9.6482876949       25.7290854920
  S        -3.5449623128       14.0690290957       37.0313716585
  C        -3.2542463801       16.6545003090       37.5594144464
  H         3.3867606491        7.8852786576       10.3652269087
  H         3.6375881109        6.1202381412        9.8295052813
  H         2.4503714804        6.6357119983       11.1540047170
  H         6.9492926737        5.7304969606       30.4717142759
  H         5.5774259093        5.4013414629       31.5641484261
  H         6.7881870949        6.6290954288       32.0819846244
  H       -10.6668585609        9.2018850747       25.0613547900
  H       -10.2569684213       10.5416973298       26.1934089837
  H        -9.7142108998        8.9163765832       26.4811237030
  C        -3.7214935068       14.7771585375       38.6937239536
  N        -3.6082847282       16.0992401755       38.7343190084
  O        -3.0026712641       17.8173982137       37.3755018629
  S        -4.5693149849       13.9649774048       39.9329613448
  C        -3.7997444512       17.0044593120       39.8407007757
  H        -4.1432302198       17.9784734031       39.5274972765
  H        -4.5863071366       16.5684605048       40.4473236364
  C        -2.4634139210       17.1733556914       40.6449523731
  H        -1.8221834353       16.2901483334       40.5516817396
  H        -1.7713615809       17.8750439875       40.2340965202
  H        -2.7616582432       17.3358829557       41.6911420203
