352
i=
  H         3.7733459296        3.8693468014       12.5260314621
  C         3.0212508002        3.0666415410       12.3906133678
  H         2.0703937215        3.5452169612       12.0907782513
  C         3.3721554362        2.1341687677       11.3017144568
  C         2.7149452280        2.4721599775       13.8161478442
  C         4.2623112903        2.7330512401       10.2267119687
  H         2.4103936450        1.7217019507       10.9827564751
  H         3.9618150851        1.3250686222       11.7792244506
  H         1.7709178525        2.9042512200       14.1257405021
  H         3.5468968717        2.8101539626       14.4309090926
  H         2.5487449259        1.3856942689       13.8029135402
  C         4.9324108932        1.6498213367        9.5369210067
  H         3.7483234799        3.3094075807        9.4686685340
  H         4.8604625182        3.4781498530       10.8210313051
  C         5.6498078754        2.1569029949        8.2474395217
  H         4.1584632884        0.9502956678        9.1522161560
  H         5.7449608902        1.1994671973       10.1963213722
  C         6.8858513244        3.0218155205        8.5344812810
  H         4.9199668256        2.6436406007        7.5679410500
  H         5.9424347757        1.2624968315        7.6630772775
  C         8.1373115465        2.2179690966        9.0077724254
  H         7.1717249024        3.6458876531        7.6841611790
  H         6.7403937380        3.6752959233        9.3934586900
  C         9.4564204013        2.9943207814        9.1869871421
  H         8.3358410236        1.2984815505        8.5236777986
  H         7.7791746795        1.9831569263        9.9752146037
  C         9.0601905553        4.3625128846        9.8501359239
  C         9.8968516192        3.7764945328        8.0035086320
  C        10.5804423230        2.2561792325       10.0165294252
  C         9.2900267294        5.4661975338        9.0715838455
  C         8.6122828063        4.7734326515       11.1348989708
  C         9.8812063806        5.1060067011        7.8722328710
  C        10.3014347383        3.1359908431        6.8233728101
  H        10.1461441492        1.7754969882       10.9117818996
  H        10.9134580042        1.3825418939        9.3959089105
  C        11.7154991442        3.1093986841       10.4218696858
  S         8.8457312015        6.9163244506        9.8651205665
  C         8.4758801277        6.0869350249       11.2766687692
  H         8.3428308826        3.9946722844       11.8725379445
  C        10.3804083827        5.6974055000        6.7395127045
  H        10.2521302168        2.0916591221        6.7135559659
  C        10.7602659363        3.7125995249        5.7016956138
  H        11.3288252317        4.0371891930       10.9413499889
  H        12.1881075041        3.5607466811        9.5627723395
  C        12.6874899035        2.4443993842       11.3006129144
  C         8.0994345798        6.7807423092       12.5677529536
  C        10.9282689840        5.0689032058        5.6491761073
  H        10.4592013823        6.7801929901        6.7090231962
  C        11.2214924636        3.2519079350        4.4647914360
  H        13.6959508052        2.8259626926       11.0157990994
  H        12.6390806283        1.3592791393       11.1174708493
  C        12.3803599844        2.8718544923       12.7654835238
  C         8.0885016021        8.1598448960       12.7999230793
  C         7.7362852019        5.9456643700       13.7718878065
  C        11.4642275654        5.6888558179        4.3463202570
  C        11.5891226822        4.3414896877        3.6860830884
  S        11.4293308507        1.7310778609        3.7331726306
  H        13.0150691683        3.7168368892       12.9947500847
  H        11.3691038685        3.1667170161       12.8087379071
  C        12.6693196924        1.7618192293       13.7925015782
  N         8.3004013125        9.1488320787       11.8245667524
  C         7.8761936316        8.7105857025       14.0746547592
  C         7.3357344367        6.4614418988       14.9471861202
  H         7.6990104818        4.8417171999       13.7506889055
  C        12.8423649421        6.3413041359        4.6404834970
  C        10.4161137485        6.6328008161        3.7091298820
  C        11.8910331018        3.9725183622        2.3425878119
  C        11.8393009144        2.5876398613        2.2501764494
  H        13.4298122438        1.1228878468       13.4258317336
  H        11.7322609894        1.0913845936       13.8385570800
  C        13.1424134438        2.3809732574       15.1728589984
  S         8.2213524947       10.6023049290       12.5650448453
  N         7.8643668694       10.1100824090       14.0586194741
  C         7.3982252612        7.9458283889       15.1719703793
  H         7.1959595098        5.8148716970       15.8267190958
  H        12.5199776987        7.3483263791        4.9385090569
  H        13.3087601858        6.3829849390        3.6783605670
  C        13.7677492767        5.6050822931        5.6253506548
  H        10.5679928687        7.6730941529        4.0101036516
  H        10.5646355987        6.5701970142        2.6228699948
  C         8.9671918621        6.1343883340        3.8381715283
  H        12.1321024372        4.7420467195        1.6626959460
  C        12.1786406344        1.8126270334        0.9800142148
  H        14.1710836128        2.5307048580       15.1733676194
  H        12.7369627403        3.3467418870       15.2505382726
  C        12.7974015826        1.4798149748       16.3889910121
  C         7.2341334526        8.6884575274       16.4188154735
  H        13.2650173647        5.9077842813        6.5402294381
  H        13.6659666798        4.5400536120        5.5246579991
  C        15.1944924623        6.1470296656        5.5254461138
  H         8.6690711890        6.1197703471        4.8957807671
  H         8.7738923144        5.2278909185        3.3799404874
  C         7.9606623448        7.0940761799        3.3125009158
  C        12.1498267557        0.4338201934        0.7935798726
  C        12.5300059126        2.6021377391       -0.2624835390
  H        13.4406940212        0.6322227477       16.3532881804
  H        11.7427656511        1.0316875828       16.2949166489
  C        13.0968751802        2.1820061871       17.7329593482
  H         7.3427883697        9.7719575938       16.2209085581
  C         6.9592269632        8.2191021294       17.7020263506
  H        15.2831703225        7.2139246848        5.5264735691
  H        15.6741847626        5.8787146413        4.5596650710
  C        15.9876246945        5.5576534441        6.6295437939
  H         7.3851799682        7.5640090038        4.1782737149
  H         8.5222771463        7.9160481883        2.7786347497
  C         7.1135612645        6.3959440179        2.2181337095
  N        11.8591704134       -0.5146194084        1.7638731657
  C        12.4781688943       -0.2050657225       -0.3864975360
  C        12.7056749222        1.9440451798       -1.4950796647
  H        12.4437792375        3.6926184658       -0.2181038899
  H        13.4814965788        3.2493270401       17.5896525792
  H        13.7910841805        1.6813585657       18.3142378810
  H        12.2407891716        2.3058143805       18.4375629133
  S         6.6623816943        6.6279586685       18.0692821867
  C         7.0486238662        9.1654580778       18.8117287280
  H        15.4087378165        5.6545578593        7.5278238866
  H        16.2634006481        4.4800704319        6.4974408627
  C        17.2629638722        6.2704798408        6.7746906984
  H         6.7444420104        5.4943047466        2.6662879901
  H         7.6492886398        6.1796481852        1.3170723760
  C         5.9769868217        7.2426131266        1.6511192300
  S        12.0379603852       -1.9866518178        1.2351836022
  N        12.5197967392       -1.5732928459       -0.3068732067
  C        12.8369837640        0.4458834855       -1.5806859848
  H        12.8238143434        2.4949883496       -2.3460555901
  C         6.5496388820        7.2072816214       19.7281651179
  N         6.7873765866        8.4772113993       19.9975969497
  O         7.3020612993       10.3799833039       18.6793917309
  H        17.5432498494        6.8579318029        5.9342814759
  H        17.1145601043        6.9541064660        7.6233549197
  C        18.4573503028        5.4315574241        7.2049379025
  H         6.4292076326        7.9797574730        0.9979838531
  H         5.3298840414        6.6160313440        1.0749464196
  C         5.1297827420        8.0070171140        2.6460951696
  C        13.2212356379       -0.3059156015       -2.7580917218
  S         6.0345497272        6.2269921533       21.1399048585
  C         6.8590656251        9.1427144543       21.3146694160
  H        18.1186912788        4.9958875627        8.0706270871
  H        18.7618101702        4.6716476762        6.4782478044
  C        19.7962012359        6.2682026147        7.4969634224
  H         5.7874327025        8.6842054570        3.1946283627
  H         4.6626133579        7.4237620452        3.4127630105
  C         4.1121113591        8.9183913918        1.9878162938
  H        12.9178909160       -1.3366835176       -2.7998995072
  C        13.7747740818        0.0399243107       -3.9789057991
  H         6.2190826721        8.8348515809       22.0666261213
  H         6.3807312901       10.1258681968       21.1479787781
  C         8.2355095387        9.3453960148       21.9529939753
  H        20.4415709103        5.6572812136        8.1983454621
  H        19.4652468160        7.1232928159        8.0723442546
  C        20.5126939681        6.6516957858        6.2393431877
  H         3.7140116094        8.2849425063        1.2471305841
  H         3.2811191801        8.9516694944        2.6263173184
  C         4.7264257934       10.2592352276        1.4645848523
  S        14.3210683554        1.6463017066       -4.2714792648
  C        13.8943777413       -0.8983401308       -5.0893392392
  H         8.7586323469       10.2481813130       21.7419351754
  H         8.7956533618        8.4607386788       21.7516774020
  H         8.0413373711        9.4042359098       23.0299270223
  H        21.4960016361        7.0296646457        6.4019314443
  H        20.6610301149        5.7908281425        5.6293638132
  H        19.9355784685        7.3638028594        5.6321393142
  H         4.9511723398       10.9248336187        2.3196455934
  H         5.6829437051       10.0186240838        0.9801130525
  H         4.0957621757       10.8622980819        0.8054070511
  C        14.6469941093        1.0355825285       -5.9486578354
  N        14.5267267290       -0.3047494932       -6.0931597835
  O        13.5101551482       -2.0994387580       -5.0263170305
  S        15.3143880792        1.8881793302       -7.3533995194
  C        14.6575295963       -1.1003764492       -7.3021538577
  H        14.8765830698       -2.0955709973       -7.0094110567
  H        15.5216122353       -0.8397630853       -8.0052679293
  C        13.4416166607       -0.9302762929       -8.1696537559
  H        13.5358924523       -0.1157384570       -8.9138369598
  H        12.5249557590       -0.7621823299       -7.6243710093
  H        13.1731987489       -1.8322784605       -8.6406103859
  H        -2.5770072192       14.5618529886       15.7420890882
  C        -2.8084435961       13.5918425833       16.0463220767
  H        -3.8079675587       13.6473734402       16.3737838629
  C        -1.7432567798       13.2191577036       17.0435137837
  C        -2.6558181447       12.8818272097       14.6621855675
  C        -1.8610146483       13.8274528679       18.4017996728
  H        -1.8380317526       12.1868274773       17.1396155126
  H        -0.7436771449       13.3605139976       16.6555728159
  H        -2.6046422746       11.7822531929       14.7747819876
  H        -3.4687183913       13.2530466607       14.0383055503
  H        -1.6779825962       13.1847131690       14.2986706300
  C        -1.1679207394       13.0035260322       19.6085418554
  H        -2.9318232383       13.9139770175       18.5917904498
  H        -1.4248120139       14.8414670849       18.3196709391
  C        -1.7005860027       13.2714490607       21.0105545640
  H        -1.2637181891       11.9480336429       19.4759906391
  H        -0.0410109969       13.0990252760       19.6892485655
  C        -0.7928687260       12.7405586412       22.1954124444
  H        -2.6338031979       12.8771417028       21.2408069594
  H        -1.8559872661       14.3282755671       21.1347987473
  C         0.4112759343       13.6172848002       22.6591521202
  H        -1.4242045007       12.6044691749       23.0573707028
  H        -0.5482441330       11.6924476851       21.9933709243
  C         1.4962797275       12.8506193652       23.4933825775
  H         0.7912435976       13.9966373045       21.6775301884
  H         0.1645372066       14.5190605770       23.1717935288
  C         1.9060261380       11.5479170474       22.8529695601
  C         1.0328104607       12.1184475141       24.6982164844
  C         2.7060084776       13.8383381359       23.8216243699
  C         1.9080848834       10.4060547010       23.6313078440
  C         2.4654373033       11.1891581289       21.5754564653
  C         1.2453265411       10.7419390014       24.8230210943
  C         0.3746224342       12.6910569347       25.7662664048
  H         3.0185480510       14.2927900324       22.8127819451
  H         2.3916631797       14.5453792606       24.6030388440
  C         4.0486562912       13.2121948118       24.3114012081
  S         2.4126512924        8.9554080072       22.8353796590
  C         2.6229156725        9.8594362498       21.4131427073
  H         2.3924141762       11.8996192897       20.7745270665
  C         0.9572883542       10.0372532833       25.9287330673
  H         0.1774946074       13.8035982980       25.7790459808
  C         0.2706680329       12.0273562139       26.9651913897
  H         4.3090968173       12.4783339725       23.5508384925
  H         3.7470978244       12.7118503047       25.2161246618
  C         5.2571965525       14.0969034687       24.7232352506
  C         3.0264344922        9.2010250037       20.0905775292
  C         0.3990447781       10.6648162486       27.0595991332
  H         1.2599699640        8.9755552328       25.8512735563
  C        -0.0483097479       12.3834261873       28.2546992153
  H         5.9496673463       13.5607038304       25.2745748261
  H         4.8998102769       14.8679846718       25.4006365799
  C         5.9396956947       14.7156940802       23.5165365148
  C         3.0050345773        7.7942356757       19.7590385850
  C         3.2946255504       10.0691225758       18.8903500172
  C        -0.0609245878       10.0161897842       28.3515814656
  C        -0.2636270290       11.3078962693       29.0789518013
  S        -0.4727322266       13.8941778313       28.9517732808
  H         6.6863944774       15.4877262805       23.9011742797
  H         5.3202358029       15.3675366774       22.9470916590
  C         6.5082257491       13.7394000946       22.4079412322
  N         2.6115647859        6.8641400529       20.7456387842
  C         3.2675144476        7.2571595626       18.5565086685
  C         3.4257817458        9.5378315868       17.5878451251
  H         3.3339741039       11.1294391719       19.1380511510
  C         1.1425054105        9.2182377323       29.0290901679
  C        -1.3190658957        9.1442863282       28.0893537283
  C        -0.8930063000       11.7009975280       30.3251190689
  C        -0.9032556859       13.0794212232       30.4604922843
  H         7.5310927861       13.9991566948       22.2289881352
  H         6.5227008035       12.6433859903       22.7503247770
  C         5.7837400469       13.9288843451       21.0042880948
  S         2.6818115454        5.3729259107       20.0422547668
  N         2.9733308553        5.9019902048       18.5255752977
  C         3.5411235115        8.0711449388       17.3869654802
  H         3.6064761465       10.1745342645       16.7390289299
  H         1.6084215597        8.4956189321       28.4069181276
  H         0.6637329412        8.7638971565       29.9177832851
  C         2.2949010351        9.9890912656       29.5848661665
  H        -1.0371121865        8.2132752853       27.5413686815
  H        -1.5873938517        8.8011889092       29.1226245181
  C        -2.5287099130        9.8555166372       27.6071186710
  H        -1.1479407302       10.9721854862       31.0149295022
  C        -1.2421533725       13.7464810153       31.7739238937
  H         5.8890473005       14.9580227433       20.5723889445
  H         4.6404901207       13.8863726734       21.1773094811
  C         6.1613210509       12.8193677661       20.0075746815
  C         3.6770273597        7.4805235094       16.0864652829
  H         2.6901624785       10.6941791076       28.9217829608
  H         1.9319071185       10.5346114392       30.4443294850
  C         3.4615104029        9.0783832819       29.9866585763
  H        -2.4057580913       10.3337334919       26.6631653027
  H        -2.6680114734       10.7440088004       28.2819491064
  C        -3.8501206196        9.0124154784       27.5710986251
  C        -1.2019904003       15.1503141857       31.9972432448
  C        -1.5167803390       12.9183373284       32.9902660146
  H         7.1821356302       12.5162417845       20.1404330606
  H         5.6117332976       11.9135854487       20.1988268906
  C         5.8702486010       13.3051395633       18.5679315859
  H         3.4012718626        6.4478213909       16.0925803411
  C         4.1286594480        7.9286581274       14.8857811635
  H         3.7820763746        8.6151938553       29.0418627803
  H         2.9934808419        8.1823944572       30.4628555038
  C         4.5569320678        9.8870882002       30.6879110270
  H        -3.7761378994        8.3226143259       26.7493564801
  H        -3.8522294154        8.3047874355       28.4515435698
  C        -5.1341142674        9.8248020266       27.6620936626
  N        -0.9368039662       16.1197132269       31.0346374167
  C        -1.6054080330       15.6956011744       33.2108520029
  C        -1.9397909469       13.5413638317       34.2203348450
  H        -1.4476544517       11.8252079968       32.9036263446
  H         4.8157900997       13.0125783808       18.2961880737
  H         5.9777600835       14.3432645373       18.4526751907
  H         6.5315529397       12.8768868076       17.8844080745
  S         4.4286606286        9.4946631942       14.3981422994
  C         4.1707471162        6.9402739677       13.7464016506
  H         4.6286902315       10.8464534808       30.2474446372
  H         4.1841883835       10.0848966064       31.7096260750
  C         5.9341846220        9.2133673700       30.6304645896
  H        -4.9137413742       10.7224582358       28.2793406841
  H        -5.7709592040        9.1872076262       28.3058140763
  C        -5.7480521176       10.1263530395       26.3249515970
  S        -1.1425726776       17.5801358716       31.6329482721
  N        -1.5540426430       17.1356795685       33.1412515294
  C        -1.9836148228       14.9751731677       34.3980711931
  H        -2.3570167237       12.9396115071       34.9840851484
  C         4.5201912310        8.8837436801       12.7250673108
  N         4.5071855444        7.5765761275       12.5967793699
  O         4.0970768994        5.7574449588       13.8675667142
  H         6.7774015135        9.8584291774       30.9976221076
  H         6.2060195405        9.0436382856       29.5744424084
  C         5.9252977796        7.8501802246       31.2818353999
  H        -5.1987946450       10.9350206515       25.7916819057
  H        -5.6741986238        9.2758378958       25.6085661460
  C        -7.2168318446       10.5768054551       26.3923045874
  C        -2.3455748403       15.7327570064       35.5090457137
  S         5.0203693409        9.7986014797       11.3478718722
  C         4.4645309583        6.8862565015       11.3133138280
  H         6.1726848857        8.0767400568       32.4187800901
  H         4.9720367926        7.3514919464       31.2662896986
  C         6.9900842320        6.9651574633       30.6569081062
  H        -7.2749373065       11.6222985399       26.1891108997
  H        -7.6153423830       10.4702010216       27.4485790299
  C        -8.1634037634        9.9168024691       25.3884653303
  H        -2.3650361110       16.8201587855       35.3210674039
  C        -2.7247259009       15.4593081637       36.7563173798
  H         5.2116711851        7.2187755207       10.6161723519
  H         4.8007020267        5.8141598048       11.5055936024
  C         3.0499691926        6.7907825112       10.6879162176
  H         7.9326408475        7.4735767253       30.6384324816
  H         6.5424325335        6.7448767340       29.6415101193
  C         7.1550125939        5.6111316259       31.2519755822
  H        -8.0706096362       10.2824287126       24.3880333420
  H        -7.6613875937        8.9627734868       25.2584934556
  C        -9.5881878993        9.8322757111       25.8784307134
  S        -3.2729593697       13.9134754980       37.3072691669
  C        -2.9541475194       16.5230259254       37.8100696638
  H         2.9331489843        7.6276006668        9.9780359765
  H         2.8152570333        5.8837851027       10.1290333868
  H         2.3463070473        6.9366216670       11.4069324344
  H         7.3819857844        5.5697994133       32.2928993082
  H         8.0212300816        5.1989196317       30.6994164732
  H         6.2933011787        4.9534268951       31.0419751691
  H        -9.6439846986        9.6067356960       26.9556637715
  H       -10.1114486861        8.9919302114       25.4247879695
  H       -10.1034561524       10.7444263731       25.6869838482
  C        -3.5843056387       14.6394101691       38.8910988952
  N        -3.4341110744       16.0001724827       38.9471735757
  O        -2.6531917282       17.7092141642       37.6925513429
  S        -4.3450669772       13.7997054428       40.2017789144
  C        -3.5332560798       16.8330234879       40.1684434969
  H        -3.9738163792       17.8153468571       40.0340682767
  H        -4.1294919469       16.2938577796       40.9006479365
  C        -2.1235766018       16.8739754732       40.9068990147
  H        -1.9210933245       17.8623764556       41.2373860790
  H        -2.2798966554       16.1088678124       41.7347375928
  H        -1.3118715497       16.3759711643       40.4176407118
