352
i=
  H         4.7352081396        1.5115502831       12.8148548770
  C         4.0535205672        2.3736207745       12.9223201785
  H         4.5972937001        3.3440729214       12.9542136721
  C         3.1324555479        2.3270439458       11.7329044175
  C         3.3466768386        2.1478887207       14.2443442188
  C         3.9367477200        2.4850648122       10.4065284609
  H         2.5996919688        3.3112073651       11.8177925122
  H         2.5013789759        1.4517476920       11.7375479609
  H         2.6232757131        1.3007587728       14.3867023035
  H         2.8569681338        3.0373913845       14.5155445154
  H         4.1064027917        1.8494259741       15.0271380197
  C         4.5026923177        1.2193651662        9.8061600817
  H         3.1611629150        2.7734747845        9.6516249371
  H         4.6746807629        3.3121766323       10.5827755002
  C         5.3162618356        1.3992979929        8.5273934564
  H         3.7714468259        0.4653085742        9.5378336776
  H         5.1287631109        0.8127945675       10.6043626756
  C         6.4153104190        2.3545642422        8.6422740825
  H         4.7556695541        1.8046778723        7.7474087309
  H         5.5576593055        0.3955626298        8.1523447237
  C         7.7364641331        1.6952947550        9.0365327303
  H         6.4320592262        2.7558083145        7.6517834582
  H         6.2583409158        3.2389143829        9.2737882056
  C         8.9243001817        2.6047324440        9.2908075942
  H         8.0201858950        1.0269816521        8.2975088524
  H         7.6849714738        1.1395414784        9.9464402113
  C         8.5670561697        3.9557831940        9.9400547332
  C         9.4056965615        3.3013439471        8.0605375391
  C        10.0458106139        1.9211150211       10.0759222121
  C         8.7277701425        4.9937752262        9.0552294134
  C         7.8724902733        4.2440095247       11.1430226719
  C         9.2979334291        4.6573690228        7.8885147149
  C         9.9751298435        2.6113505756        6.9492607458
  H         9.5930261982        1.2502815743       10.8625064183
  H        10.5427373904        1.2035622139        9.4687974153
  C        11.0604962288        2.8131031163       10.7877125575
  S         8.4188007221        6.4469724997        9.9132963396
  C         7.8246716623        5.6266437648       11.2854572356
  H         7.5024461335        3.3884258944       11.7637214057
  C         9.6894026702        5.2164175435        6.7599923151
  H        10.0218656845        1.5085829241        6.9457111082
  C        10.3319459289        3.2571538534        5.8105015287
  H        10.5237886919        3.5482290836       11.3904915177
  H        11.5453079386        3.3426585234        9.9725079059
  C        11.9527647821        2.0773972151       11.8295518050
  C         7.3055159945        6.3243547777       12.4955775054
  C        10.2756273405        4.5974565379        5.6536779028
  H         9.4930003775        6.3135152434        6.7458219775
  C        10.7012007216        2.8843982446        4.5612569850
  H        12.7776459114        2.8230674953       11.9660660738
  H        12.5351821788        1.3429572413       11.1987798206
  C        11.2722391359        1.5420522759       13.1205797849
  C         7.1975584051        7.7752196764       12.7265145395
  C         6.8688069078        5.5247210395       13.6407955038
  C        10.6579803262        5.3011612968        4.4208048312
  C        10.9420990548        3.9760047337        3.7497818915
  S        10.8945890458        1.3490530519        3.7673355297
  H        10.2406636454        1.3819751686       12.9099911190
  H        11.7872108769        0.5870751345       13.2680753954
  C        11.7263785070        2.2780667060       14.4127526342
  N         7.4661943244        8.7634505346       11.7577685311
  C         7.0631748444        8.2940529817       14.0168325953
  C         6.7137660455        6.1035054432       14.9343538061
  H         6.8646811147        4.4319180588       13.5201352017
  C        11.9164228149        6.1996779008        4.4352365209
  C         9.4705249327        6.0934252764        3.8379043403
  C        11.3651901995        3.5550114497        2.4336759599
  C        11.4015094907        2.1911489943        2.3128219177
  H        10.8773633916        2.5480295758       15.1257741130
  H        12.0917180340        3.2450926424       14.1044028807
  C        12.8394190538        1.5467375334       15.1410185772
  S         7.6491622826       10.1905157576       12.5337778141
  N         7.3141009868        9.6494409013       13.9944911717
  C         6.7065877709        7.5576962353       15.1712781265
  H         6.6129559977        5.4115123069       15.7298230552
  H        11.7009551850        6.9988241536        5.1801868689
  H        11.9363725417        6.7445642511        3.4755063913
  C        13.2602091744        5.5112081521        4.7453342082
  H         9.3632935628        6.9423510322        4.5412306641
  H         9.8169832152        6.6204791855        2.8752017542
  C         8.1428075189        5.3658159372        3.5571467165
  H        11.5436056336        4.3127683675        1.6786903537
  C        11.6768657634        1.3809357026        1.0776516709
  H        12.6230122461        0.5528852359       15.3915741229
  H        13.6963686079        1.3550360671       14.4468166002
  C        13.3055249530        2.1168622188       16.4154203919
  C         6.5702985633        8.1707202889       16.4883076071
  H        13.1872212271        5.1110499899        5.7579516745
  H        13.3641597889        4.6282214116        4.1132594023
  C        14.4060421978        6.5034615088        4.8714932195
  H         7.7473827301        4.8095755253        4.4784254406
  H         8.2313373495        4.6243368852        2.7176717422
  C         7.1842077688        6.4594201998        3.3000297375
  C        11.6651626163       -0.0593102107        0.8192157638
  C        11.9615903494        2.1405451345       -0.1708209398
  H        14.0027074524        2.9385573494       16.0977388528
  H        13.9552253395        1.4319747003       16.8798379573
  C        12.1613056634        2.6075072333       17.2697292728
  H         6.8695529452        9.2042204773       16.5423200397
  C         6.3493523341        7.7548220769       17.7644860824
  H        13.8697551892        7.0471932698        5.5720715377
  H        14.4005549202        7.0647212441        3.9185005555
  C        15.7788100264        5.7842050680        5.3268823609
  H         7.0814624721        7.0927222514        4.1671003924
  H         7.6597737349        7.0939009814        2.5819585379
  C         5.7820394091        5.8257833883        2.8872918382
  N        11.3353810361       -0.9927268260        1.7484169005
  C        11.8135187247       -0.6510185757       -0.4120289299
  C        12.3128561651        1.5275621875       -1.3654940747
  H        11.9002712294        3.2066698440       -0.1725908268
  H        12.6673259738        2.6388182228       18.2740427227
  H        11.4027247627        1.8639140801       17.3799413157
  H        11.7440172938        3.6266612549       17.1215294946
  S         6.0339675088        6.1153958901       18.2741100078
  C         6.3902875295        8.8099838060       18.8182828870
  H        15.8711117377        4.7230666816        5.0787458754
  H        16.6860616648        6.2590111809        4.8570971971
  C        15.8462912675        5.8515776637        6.8356195515
  H         5.2823647835        5.5164966903        3.8415258207
  H         5.9425014436        4.8995299368        2.2288657067
  C         4.9626064949        6.7381261413        2.0274224835
  S        11.1720167827       -2.4835033835        1.1206593544
  N        11.6986120869       -2.0503060142       -0.3925996920
  C        12.2674660147        0.0635206569       -1.5332208763
  H        12.6096567385        2.2562879848       -2.1025910204
  C         5.8737405860        6.8707595479       19.8304428119
  N         5.9753647571        8.1908885883       19.9248236713
  O         6.6859847446       10.0604815486       18.6690313366
  H        15.7401533479        6.9391509410        7.1016306783
  H        14.9018675680        5.4764587116        7.2834670959
  C        17.0597155766        5.0820039061        7.3918333666
  H         5.6973005286        7.0602048619        1.2822160464
  H         4.1634313665        6.0628337049        1.6705988290
  C         4.4021267810        7.8846128841        2.8147192514
  C        12.4378320238       -0.5798257366       -2.8446673538
  S         5.5387577331        6.0239038427       21.3007813826
  C         5.9410361261        8.9260289334       21.1414677203
  H        16.7378921660        4.7320091303        8.4224148535
  H        17.3031515504        4.1863695793        6.7218795987
  C        18.3360038516        5.8575183900        7.5481142031
  H         5.2486830434        8.3210170912        3.3265644128
  H         3.6856493675        7.6004649410        3.6550457617
  C         3.5700099290        8.9076463798        2.0110764871
  H        12.1694486169       -1.5548573866       -2.9406067820
  C        13.1273796369       -0.0896887339       -3.9117642851
  H         4.9536874380        8.5241160902       21.5640191485
  H         5.8390524917        9.9912652040       21.0296029639
  C         7.2600543888        8.8705761678       21.8493050975
  H        18.8830947806        5.3108159688        8.3512911597
  H        18.1183257554        6.8367857903        7.8275254072
  C        19.3320140257        6.0013869531        6.3665641905
  H         2.7450102372        8.4294505296        1.5603754871
  H         3.2351702730        9.6724186492        2.7204643375
  C         4.3504937570        9.7680025399        1.0117501259
  S        13.8527077591        1.4963866241       -4.1297666044
  C        13.2340062967       -0.9466064376       -5.0454054186
  H         7.5385873413        9.9064238967       22.2246326695
  H         8.0937154579        8.5397807303       21.2369933184
  H         7.2230672717        8.3292912032       22.8021411863
  H        20.3060953088        6.2534207858        6.8410751016
  H        19.4658951108        5.0766653486        5.8833194648
  H        18.9680629541        6.6142459221        5.5956678278
  H         3.8298488685       10.0809879380        0.1239843641
  H         4.5171548849       10.7560896611        1.4271387900
  H         5.3228230038        9.2591947891        0.8967142952
  C        14.1967590130        0.9865251577       -5.7649357929
  N        13.9945948926       -0.2769730112       -5.9768557740
  O        12.9505677600       -2.1051450781       -5.0790332970
  S        14.9863305542        2.0201210672       -7.0393162390
  C        14.3604727386       -0.9088110613       -7.2487993698
  H        14.3766061464       -1.9431666449       -7.0743850988
  H        15.3663723212       -0.6773262617       -7.6485095555
  C        13.2679345830       -0.6986302002       -8.2759935979
  H        13.4857297240        0.2124224775       -8.7999909346
  H        12.2898383337       -0.4191318271       -7.8691910707
  H        13.1675951224       -1.4358255104       -9.0994150373
  H        -2.9514836652       15.2913689740       16.7923915535
  C        -2.8546891788       14.2546595494       16.5795016845
  H        -3.8361212067       13.8919228747       16.3980466417
  C        -2.2125359262       13.4470093536       17.7150585749
  C        -2.2412093076       14.0631209248       15.1879963823
  C        -3.0540103164       13.2922524072       19.0226098796
  H        -2.0533566403       12.4685294321       17.2821914920
  H        -1.2626985822       13.7945357965       17.9119279590
  H        -2.7071835096       14.7842371415       14.5683961717
  H        -1.1707309233       14.3106086775       14.9759522818
  H        -2.4967240783       13.0276478004       14.8171865800
  C        -2.0236139416       13.4908801828       20.2054904802
  H        -3.5581307513       12.3144508071       18.9719117361
  H        -3.9258981691       13.8941841744       18.9813833692
  C        -2.5610782819       13.4215735197       21.6441976924
  H        -1.2239859685       12.7663760598       20.1099974211
  H        -1.4234084620       14.4029795882       20.0324889811
  C        -1.5333934805       12.7275685338       22.5488769517
  H        -3.4836984853       12.8472185930       21.6528895554
  H        -2.7249654648       14.3754747988       22.1601325848
  C        -0.2939499365       13.6082350161       22.7099291463
  H        -1.9416126285       12.5534764226       23.5527846099
  H        -1.2147660492       11.7844384431       22.1983799355
  C         0.9544779942       12.9340021180       23.4078481260
  H         0.0848425587       14.0560050596       21.8297850103
  H        -0.6365506635       14.4604277088       23.2241832168
  C         1.3721650170       11.6495630526       22.7996514590
  C         0.4879460534       12.2797598211       24.7253246846
  C         2.1505038872       13.9272485984       23.6743999242
  C         1.0603791324       10.5690584992       23.5865505295
  C         1.7395229551       11.2271844083       21.5460300096
  C         0.4828857148       10.9349773793       24.7914074248
  C         0.0438545391       12.9832440800       25.8033936306
  H         2.3555500807       14.4843517457       22.7412370514
  H         1.8306923129       14.6564521053       24.4475388108
  C         3.4673327852       13.2487450373       24.2470089899
  S         1.4391176838        9.0287649148       22.9323980115
  C         1.9564911575        9.8785557879       21.5161513714
  H         1.7535239757       11.8966122507       20.7521748061
  C         0.0411341343       10.3364928134       25.9519064801
  H         0.0161639505       14.0778987762       25.6201299739
  C        -0.3482243190       12.3560004032       26.9861692970
  H         3.7566484432       12.5526582166       23.4670673158
  H         3.3345064230       12.5775765233       25.1047734255
  C         4.6171848770       14.1908770445       24.6238796498
  C         2.3643589440        9.1245576630       20.3174451053
  C        -0.3378715489       10.9966045063       27.1420123027
  H         0.1901685509        9.2858747731       26.0540619237
  C        -0.7888362708       12.7113300229       28.2015939339
  H         5.3749695123       13.6936842724       25.2595936896
  H         4.1168191532       14.9773223053       25.1734309628
  C         5.3231933733       14.6923969933       23.3170103913
  C         2.4814195423        7.6902943683       20.0833275777
  C         2.7462251328        9.9420626815       19.0777071956
  C        -0.7540468130       10.3105041386       28.4229279646
  C        -0.9919768732       11.6898310831       29.0600994334
  S        -1.0182296541       14.2653521858       28.9173467241
  H         5.9266919154       15.4896394233       23.5604148644
  H         4.6530453636       15.0473968710       22.5703940758
  C         6.3574463880       13.7993272301       22.8486516232
  N         2.1967956955        6.7354140992       21.0771859634
  C         2.7496000299        7.1217000570       18.8129290683
  C         2.9940361897        9.3038551711       17.8567992049
  H         2.7070708595       11.0335907702       19.2082342768
  C         0.4824652952        9.5750156798       29.0410682937
  C        -2.0062440919        9.5014476038       28.2492000328
  C        -1.3435535895       12.1930456875       30.3575146518
  C        -1.3650880765       13.5737342010       30.4157374425
  H         7.3223452127       14.3747020913       22.9483853914
  H         6.5071533953       12.8125671907       23.3084255116
  C         6.1359125270       13.5511060022       21.3852444326
  S         2.2701424129        5.2551319946       20.4199545100
  N         2.5869381421        5.7413172256       18.9009102361
  C         2.9692746340        7.7735459281       17.6442584797
  H         3.1349035133        9.9726502732       17.0868410364
  H         0.6813266951        8.6644117212       28.4739315732
  H         0.1582141210        9.0648759580       29.9731687105
  C         1.8216328019       10.3140740799       29.0571847283
  H        -1.7677343792        8.6712968537       27.6558358125
  H        -2.1503666737        9.0271893388       29.1878426548
  C        -3.2207810014       10.3065199696       27.8054442013
  H        -1.6483247525       11.5206202232       31.0565306234
  C        -1.6891908993       14.4209402431       31.6122006685
  H         5.6768472839       14.4964441662       20.9822322535
  H         5.4995948977       12.7281154164       21.0594787798
  C         7.4699179163       13.3686651369       20.6580043451
  C         3.1432657401        7.1482652074       16.4109145042
  H         2.1521369204       10.6476525807       28.0965951872
  H         1.6382943204       11.2960355726       29.5425279002
  C         2.9486309000        9.4805810428       29.6119748339
  H        -2.8694004980       10.7852121881       26.8335322858
  H        -3.4507610786       11.1251059039       28.5304330609
  C        -4.4757763236        9.4036342161       27.5641412135
  C        -1.7636423357       15.7993264954       31.7402512216
  C        -1.8160885094       13.6781133663       32.8663274755
  H         8.2963629609       14.0221502830       21.0234583327
  H         7.8097223912       12.3332587280       20.7763924232
  C         7.2932618890       13.7112412455       19.1767077367
  H         3.1138271843        6.0757716956       16.4439715953
  C         3.4093730652        7.5801442034       15.1118147286
  H         3.1340453826        8.7552414584       28.7879130542
  H         2.5543230446        8.9401647633       30.5157857949
  C         4.2284019996       10.2755725768       29.9801150697
  H        -4.1928731546        8.5270410822       26.9747534123
  H        -4.8711384273        9.0151406610       28.5272131735
  C        -5.5951321423       10.1348509611       26.7694782084
  N        -1.4405246111       16.6246062915       30.7263980463
  C        -2.0875055881       16.4352788459       32.9425665880
  C        -2.1294236197       14.2303001535       34.1326436313
  H        -1.7658776802       12.5962008023       32.8624751909
  H         6.4460156365       14.3117004585       18.7230166622
  H         8.2977259620       14.0629772426       18.8013407811
  H         7.1478432964       12.7975592131       18.7118021681
  S         3.4309772415        9.1844055711       14.5964796179
  C         3.4794492188        6.5193075800       14.0066976584
  H         4.4994079354       11.0801418287       29.2431500439
  H         4.0172467062       10.7443039856       30.9557220449
  C         5.3316858475        9.3020267594       30.0979302985
  H        -5.1744301152       10.6738038054       25.8677487523
  H        -5.8414983854       10.9651548124       27.4115569573
  C        -6.8344139740        9.3955326372       26.4064741877
  S        -1.6547250285       18.1635728856       31.2857729023
  N        -2.0767524771       17.7952764936       32.8055118470
  C        -2.2787756697       15.7216024846       34.1565914846
  H        -2.3027255466       13.5125989690       34.8653749516
  C         3.7312590852        8.5415273316       12.9252058035
  N         3.7137917652        7.1768142286       12.8410733261
  O         3.5094799660        5.3017698825       14.2063772302
  H         6.2202565154        9.9116143982       29.9105092686
  H         5.2798095486        8.5966951005       29.2458675456
  C         5.3909508831        8.5906493350       31.4596786442
  H        -6.5721089503        8.6111803461       25.6504974987
  H        -7.1580068820        8.8207280189       27.2782425930
  C        -7.8979683055       10.2563334796       25.7292775050
  C        -2.6745214820       16.3760455163       35.3117932006
  S         4.2487549071        9.4115024603       11.5240714591
  C         3.9263470299        6.4851749882       11.5854207176
  H         5.8342720221        9.2549111826       32.1907588698
  H         4.3308439997        8.5575440108       31.7370196438
  C         6.1623712645        7.3787034662       31.5291474227
  H        -7.4815927874       10.4090191331       24.7156719480
  H        -7.9856403153       11.1976396060       26.1901736983
  C        -9.2726293915        9.6022892644       25.7218287575
  H        -2.4059380488       17.4463108674       35.3405809439
  C        -3.2464109620       15.9629483962       36.4738069556
  H         4.8833541541        6.8121844220       11.2272621834
  H         4.0686241198        5.3969185877       11.7128172051
  C         2.6665465105        6.6477396032       10.6675985746
  H         6.5130397912        7.2689177816       32.5273172714
  H         7.0843724131        7.4882705762       30.9420916980
  C         5.2529280893        6.2683140270       31.0935695375
  H        -9.7793329801        9.9600977910       24.8665986101
  H        -9.1915091642        8.5058966688       25.7359542849
  C       -10.0755691666        9.9709910080       27.0378142802
  S        -3.9699812618       14.3959473650       36.7982525103
  C        -3.2708096252       16.9063993355       37.5802838684
  H         2.5903852149        5.8832852620        9.9310331817
  H         1.8279886467        6.5696431385       11.3584098398
  H         2.7612203555        7.6531080697       10.2144146111
  H         4.2819994218        6.6443193629       30.7235441185
  H         5.1501722110        5.5833180662       31.9212614420
  H         5.7524570652        5.7766134117       30.1954559476
  H        -9.5231671576        9.3993830179       27.8746107785
  H       -11.0378347179        9.5311884080       26.8876672296
  H       -10.1135759407       11.0667114831       27.1772391076
  C        -4.0581069442       14.9267651717       38.4663980157
  N        -3.8656504971       16.2462857623       38.5947902213
  O        -2.8665668506       18.0592994436       37.5512146011
  S        -4.9889195914       14.1343314662       39.7550171332
  C        -3.9663916489       17.0485634500       39.8252981687
  H        -4.2656435965       18.0063077981       39.6665210445
  H        -4.7661785340       16.6539217775       40.4689849117
  C        -2.6067819947       16.9566904034       40.5314626794
  H        -2.6973836257       17.3712439414       41.5486166236
  H        -2.1767037776       15.9191934740       40.5647016596
  H        -1.9026876997       17.6716191198       39.9891909383
