352
i=
  H         3.5338143318        0.1995375898       12.1189353756
  C         3.5135766931        1.3134964290       12.2298868945
  H         4.5176529419        1.7215054444       12.1009150372
  C         2.7174031593        1.8737710229       11.0466887131
  C         2.9613080922        1.6973031505       13.5465872777
  C         3.5286891568        2.3506206702        9.8659245564
  H         2.4430850268        2.8725268035       11.4367167645
  H         1.8035612600        1.2988461952       10.7839134136
  H         1.9060111560        1.7330705068       13.5445116646
  H         3.3683189998        2.7261348015       13.8391757572
  H         3.2345465362        1.0241295160       14.3699377843
  C         4.4453011776        1.2311000409        9.3199594539
  H         2.7552929008        2.6742602059        9.1587958015
  H         4.1376822261        3.1610836735       10.1576644408
  C         5.4903225814        1.8091471214        8.3114202840
  H         3.7795713320        0.4635452498        8.8584962238
  H         4.8547090231        0.6425819385       10.1260229690
  C         6.5895417174        2.6912505277        8.9635345424
  H         4.9165785935        2.4970248983        7.7248210809
  H         5.9211079923        1.0399970541        7.6087272751
  C         7.8795612004        1.8180967166        9.1931210502
  H         6.7018645653        3.4911411996        8.1848796912
  H         6.2849033073        3.2648176875        9.8744646785
  C         9.1490244349        2.7028817131        9.3328713193
  H         7.9478496574        1.1240648323        8.4599115584
  H         7.7363329162        1.1372676158       10.0367496999
  C         8.7694885442        4.0162003570       10.0330893938
  C         9.4979779528        3.3865791350        8.0202391479
  C        10.3306021397        1.9858153394       10.0388584015
  C         8.8624818054        5.1490868299        9.2446993299
  C         8.2695815390        4.3268781693       11.2714635061
  C         9.2963654700        4.7471262493        7.9611824490
  C         9.9595223277        2.7875923506        6.8525385316
  H         9.9012725096        1.4598647345       10.8465308900
  H        10.8749588381        1.2232899414        9.4715562022
  C        11.4551919796        2.9027249217       10.4931801208
  S         8.4420685130        6.6000112714       10.0521691357
  C         8.0314439758        5.6794217096       11.4338772320
  H         8.0142766134        3.6142120462       12.0352036327
  C         9.6742850000        5.4254044892        6.8666861038
  H        10.1353484237        1.7492843496        6.9811529344
  C        10.3554528458        3.4752923612        5.7161914472
  H        11.0410057882        3.8404722412       10.7969699703
  H        11.9512265002        3.1991950765        9.5370827186
  C        12.2895482697        2.2197701186       11.6835727114
  C         7.5809655845        6.3274435194       12.7079786433
  C        10.1635026039        4.8654973230        5.6785756988
  H         9.5702079832        6.5115755778        6.9765225312
  C        10.8426375776        3.1766030995        4.4991997469
  H        13.1403027791        2.8122953040       11.7231692657
  H        12.7408731150        1.2321986453       11.3800899956
  C        11.5372582988        2.1369527442       12.9444973410
  C         7.6244311966        7.7377895419       13.0054952700
  C         7.0365273219        5.4667232068       13.8214132141
  C        10.6263273434        5.5969276893        4.4005432065
  C        10.8872295916        4.2795738770        3.6470413827
  S        11.2110227287        1.7167617186        3.7162379248
  H        11.1124995199        3.0504709754       13.0838618304
  H        10.6652670705        1.4675757331       12.7716048118
  C        12.3865568431        1.7323736618       14.1043724739
  N         8.1619050158        8.6904115257       12.1679533487
  C         7.2353408593        8.2666069218       14.2513850172
  C         6.6440899303        5.9710490932       15.0285669041
  H         6.9963754418        4.4316516208       13.6053588880
  C        11.9115700957        6.4543351458        4.6484416792
  C         9.4514291618        6.4143610246        3.8172502472
  C        11.1530526049        3.9694662932        2.3212650770
  C        11.3875802857        2.6339943437        2.2018418288
  H        13.3094081555        2.2722520791       13.9365715214
  H        12.4733652875        0.6798400827       14.0766875520
  C        11.8819245444        2.3856058318       15.4215685950
  S         7.8836851636       10.1436049374       12.8412593639
  N         7.3014196309        9.6362038549       14.2875171294
  C         6.6729464565        7.4614654327       15.3223426379
  H         6.2013996603        5.2294619047       15.7137480371
  H        11.6113993069        7.3720880450        5.2650913145
  H        12.2032146593        6.7935208331        3.6846054325
  C        13.0615674834        5.6468350105        5.3206266995
  H         8.9959268707        7.1282360605        4.5167340175
  H         9.7842913675        7.1889598701        3.0492751787
  C         8.3812185656        5.4792019895        3.1686571974
  H        11.1176991959        4.6834328371        1.4892000056
  C        11.7304838582        1.9158739005        0.9543330170
  H        11.6384305890        3.4056925106       15.3445636114
  H        10.9506720328        1.8777387868       15.6124022653
  C        12.9172468082        2.1864033822       16.5281157354
  C         6.3595076881        8.1422962937       16.5508166482
  H        12.6706802246        5.2490319950        6.2939177809
  H        13.4075284151        4.7828768745        4.7798878247
  C        14.2390643762        6.5125657250        5.5799330239
  H         8.1755272817        4.6318562479        3.7990810785
  H         8.7573848711        5.0016603425        2.1998544612
  C         7.0967897537        6.2493688483        2.8845291605
  C        11.8114157642        0.5109655039        0.7667294577
  C        12.1041897235        2.6807849800       -0.2227344686
  H        13.8313290957        2.7752113617       16.3566151771
  H        13.2342580416        1.2088019661       16.5449304620
  C        12.3247473611        2.6068268708       17.8392765452
  H         6.6208408171        9.1707564676       16.5873815363
  C         6.1068391137        7.6647895644       17.7748189142
  H        13.9465361871        7.2281602330        6.3414791757
  H        14.5196589836        7.0885496951        4.7506123366
  C        15.4419428986        5.5883227418        5.9138721149
  H         6.9789350883        7.0135375822        3.6442503372
  H         7.1237854296        6.8685307218        1.9866405694
  C         5.8968621567        5.3053911350        2.9082004125
  N        11.4962465503       -0.4935364449        1.7003845436
  C        12.2413607387       -0.0762558401       -0.4764987034
  C        12.3090558445        2.1094694878       -1.4724251244
  H        12.0335663190        3.7492677656       -0.2032678779
  H        12.2872642298        3.6671221234       18.1838345009
  H        12.9139061938        2.1022289065       18.6404964552
  H        11.2583316250        2.2736780162       17.9037788028
  S         5.9329347480        5.9947657708       18.2404430255
  C         5.9536779969        8.6975563971       18.8324557556
  H        15.1153542449        4.6238576089        6.3569675126
  H        15.9191028937        5.2915727013        5.0810920949
  C        16.3849381082        6.1887748903        6.9030447776
  H         5.6732652230        4.9385889181        3.8793640613
  H         6.1688396782        4.3490562288        2.4240872165
  C         4.5382416512        5.9488036111        2.4150947657
  S        11.8050034097       -1.9198447784        1.0420571478
  N        12.4006624272       -1.4285418466       -0.3508815313
  C        12.3999422056        0.6189852526       -1.6903676154
  H        12.5265650808        2.7249095348       -2.3472661895
  C         5.5639172381        6.6496701263       19.7815480304
  N         5.6287883472        8.0079251356       19.9442502140
  O         6.0004072273        9.9488910402       18.7313497697
  H        16.7712849336        7.2129124158        6.6418008344
  H        15.8502112277        6.2703952058        7.8192011113
  C        17.6681964159        5.3055359488        7.2076578040
  H         4.4489561301        5.9366197285        1.2608062014
  H         3.7799039068        5.2686964197        2.8595386520
  C         4.2233447832        7.3579595777        2.9770111455
  C        12.6604076455       -0.1599904378       -2.8730605012
  S         5.2885832735        5.6583956675       21.2708085997
  C         5.5264059801        8.6529368107       21.2159583401
  H        17.6235091608        5.2319125961        8.2966115599
  H        17.6278956114        4.3210945116        6.6707407023
  C        19.0004484903        5.9855724762        6.9007971498
  H         4.8620755851        7.7231336562        3.7693507149
  H         3.2195037844        7.3749364799        3.4149198869
  C         4.4871103227        8.5127421295        1.9640256303
  H        12.3346170883       -1.1995143225       -2.8128769400
  C        13.2729741763        0.1856502984       -4.0614706017
  H         4.8304994483        8.0848685008       21.8133602524
  H         5.1658409811        9.6837851266       21.1556754124
  C         6.8171031420        8.6370523315       21.9582145525
  H        19.8907762708        5.4112848336        7.1865872463
  H        19.0254205763        6.8402739961        7.5772296241
  C        19.2074847768        6.4348466059        5.4223214641
  H         5.3396835176        9.1284823336        2.1791311584
  H         4.7828533793        8.0939293095        1.0024796122
  C         3.2310596587        9.4528556203        1.8350624083
  S        13.9319530909        1.7401797679       -4.4305651320
  C        13.4895838311       -0.8833546680       -5.0665819158
  H         7.6329079884        8.6681032715       21.1920117263
  H         6.7612935049        7.8466838321       22.6770576444
  H         6.9296067353        9.6030325624       22.4082625163
  H        18.2999749543        6.6539917342        4.9418843514
  H        19.9170263268        7.3127318934        5.3759344615
  H        19.6653312298        5.6343615531        4.8156367922
  H         3.4144539856       10.1870109938        1.0776736210
  H         2.3646014023        8.8050715872        1.5853669115
  H         2.9442486136        9.9721603546        2.7577970102
  C        14.3048624494        1.0543559061       -6.0168442429
  N        14.1010511059       -0.3286868168       -6.1190706014
  O        13.0232677162       -1.9692166213       -4.9494042117
  S        14.9771949420        1.9425683116       -7.3310202886
  C        14.1833343346       -0.9817403823       -7.4074051569
  H        14.2260347606       -2.0387404416       -7.1572676590
  H        15.1310592259       -0.6876875697       -7.8574963946
  C        12.9698287760       -0.9655388353       -8.2343917649
  H        12.8713505970       -0.0817092845       -8.8695289341
  H        12.0767819524       -1.0685912354       -7.6940383018
  H        13.0537711788       -1.7525175408       -8.9479872225
  H        -4.2528527085       14.0082153972       16.5295359316
  C        -3.5793614061       13.1999528999       16.3702394711
  H        -4.1908254598       12.2919443826       16.3623045817
  C        -2.5924475650       13.1396337980       17.5099783217
  C        -2.9987054018       13.2948071317       14.9629534978
  C        -3.2697329488       13.1190506239       18.8554402200
  H        -1.9820507205       12.2238558175       17.4316819534
  H        -1.9103592364       14.0025727864       17.5103303282
  H        -3.7740338465       13.4770887422       14.1569663151
  H        -2.4223620496       14.2123622529       15.0387238888
  H        -2.4354299433       12.4092847780       14.6799271098
  C        -2.3497409272       12.6328560546       19.9096770193
  H        -4.1351921451       12.3609354805       18.7365512248
  H        -3.6009736641       14.0680998175       19.2879578092
  C        -2.8646281799       12.6677500789       21.3628704210
  H        -2.0687957597       11.5854266001       19.5724721338
  H        -1.4429681939       13.1601507853       19.8783922344
  C        -1.7901060931       12.1726877414       22.4277942490
  H        -3.6763922407       11.9790497723       21.3656421008
  H        -3.2089884460       13.7575474636       21.5694465023
  C        -0.7049202895       13.2139922792       22.6784555498
  H        -2.2228903937       11.9346638967       23.3735042296
  H        -1.4857135164       11.2604774231       21.9221580047
  C         0.5816640987       12.6212784428       23.3822760473
  H        -0.3494067148       13.7517192240       21.7911666517
  H        -1.1677531613       13.8496565532       23.4222668793
  C         0.9964791729       11.2473342680       22.7120406736
  C         0.2495504277       11.9086792152       24.6082191027
  C         1.7516803374       13.6641318161       23.6368539501
  C         0.7314751876       10.1106143818       23.4690175869
  C         1.5673305826       10.8851355457       21.5049778619
  C         0.2305679395       10.5290618802       24.7057835197
  C        -0.1665517069       12.5228564124       25.8003190529
  H         1.7891480599       14.3185284398       22.7308505708
  H         1.3943881404       14.3360644285       24.4460885064
  C         3.0916015854       13.0188940219       23.9775219484
  S         1.1536016476        8.5967294814       22.7718967819
  C         1.6683273584        9.5579103729       21.3099571708
  H         1.7252707334       11.7020093145       20.8354055394
  C        -0.0942587788        9.9574269528       25.8728763754
  H        -0.1427469501       13.5958704742       25.7645984706
  C        -0.5043852300       11.9136313996       26.9205853046
  H         3.4439020368       12.2617609050       23.2581196402
  H         2.9106857334       12.4388124961       24.8474162239
  C         4.3524009904       13.7915076660       24.3354691178
  C         2.1325689489        8.9388219253       20.0366310393
  C        -0.5908275616       10.5485969722       26.9982253568
  H        -0.0529726319        8.8428926283       25.9472883466
  C        -0.9506687969       12.2825773750       28.1536017483
  H         5.0032849507       12.9834624411       24.5915991369
  H         4.3771507279       14.2304092802       25.3246167201
  C         4.9763140242       14.7068841894       23.2244296096
  C         2.1382958085        7.5291227727       19.7861779107
  C         2.4345605139        9.7303950208       18.8364593036
  C        -1.0207203324        9.8780345263       28.2738798692
  C        -1.2120074336       11.2271429914       28.9154218292
  S        -1.0785825360       13.7890089794       28.8601470697
  H         5.2113751976       15.6447060272       23.8242316110
  H         4.1423951526       15.1839040430       22.5550145777
  C         6.1896331667       14.1042409374       22.4541314901
  N         1.8183648940        6.5618621409       20.7036419537
  C         2.5417102266        6.9654436930       18.5923275508
  C         2.7936128480        9.1530904346       17.6304681939
  H         2.5584457995       10.7697658871       18.8152808359
  C         0.1576463330        9.0979722446       28.9847233235
  C        -2.3619384377        9.0943442256       28.2314193410
  C        -1.5730313366       11.5736727509       30.2259973361
  C        -1.5822867648       12.9319505146       30.3075913206
  H         6.8775994510       14.9730336065       22.1561929701
  H         6.5860850036       13.3411648268       23.1093866660
  C         5.6894070129       13.4855919741       21.1997008475
  S         1.8364318978        5.1494674905       20.0064652355
  N         2.4325465951        5.6321159120       18.5719732498
  C         2.7939935096        7.6714769229       17.4374779066
  H         3.0806386252        9.7949232928       16.8322684720
  H         0.3957406221        8.2399557816       28.3374854019
  H        -0.2138534925        8.6269168344       29.8694985191
  C         1.3421373609       10.0453088571       29.2117090145
  H        -2.2320911350        8.2369529497       27.5496829151
  H        -2.8212908147        8.8384420878       29.2178831860
  C        -3.5435205001        9.9417368068       27.6794278648
  H        -1.9024685637       10.8840997891       30.9440363950
  C        -1.9258261074       13.7456300041       31.5686448251
  H         4.8771486899       14.1216373797       20.7716923896
  H         5.2114930253       12.5244256552       21.4266712505
  C         6.7410369286       13.3580322049       20.1195785532
  C         3.1153796532        6.9326884558       16.2666190354
  H         1.6925225667       10.4565711954       28.2466065999
  H         1.0376984382       10.9301303766       29.8099142965
  C         2.4832682475        9.2566804543       29.8567296652
  H        -3.2996754865       10.5884815845       26.8699972985
  H        -3.8654715834       10.6387714779       28.4918519324
  C        -4.7600550375        9.1165411948       27.2537534228
  C        -1.9984151850       15.1942412523       31.7071005146
  C        -1.9939115362       13.0217190987       32.8635475873
  H         6.2697698546       13.3003091858       19.1907264567
  H         7.2584248949       14.3113784841       19.9909367391
  C         7.6913816884       12.1808322885       20.2114810873
  H         2.8758759536        5.9004777492       16.3291633229
  C         3.3747839648        7.3894290558       14.9893735139
  H         2.9757169836        8.6314032684       29.1138221247
  H         2.1044915686        8.5953051358       30.6411902136
  C         3.6043551707       10.1020318173       30.5262774960
  H        -4.3689441855        8.2457526454       26.7617552848
  H        -5.3568025668        8.9176468996       28.1794774487
  C        -5.6260676765        9.8774963910       26.3161806838
  N        -1.9191345046       16.1774815616       30.6350394864
  C        -2.2486881729       15.8424416254       32.8939758583
  C        -2.3005288973       13.6937732973       34.0620611498
  H        -1.9108430121       11.9931123880       32.9104839846
  H         7.1826552753       11.2340674738       20.5014130219
  H         8.2550723779       12.1562322429       19.3126557624
  H         8.4561231009       12.4558187712       20.9319867192
  S         3.4382217259        8.9847640343       14.5080103225
  C         3.5082971542        6.3712623535       13.9111405577
  H         3.7946543202       11.0607177760       29.9812561620
  H         3.2988109711       10.4715137049       31.4980420354
  C         5.0153872657        9.4519512788       30.5882774890
  H        -5.0311208961        9.9328158858       25.4160004167
  H        -5.7561138904       10.8498732338       26.8178385813
  C        -6.9142168295        9.2655319140       25.9386263322
  S        -2.0253868966       17.6616685351       31.3043215736
  N        -2.3192893225       17.1961480417       32.8078415167
  C        -2.5106081219       15.1167546712       34.1069087877
  H        -2.3506343948       13.1135341982       35.0177873585
  C         3.6514328883        8.3638573974       12.8888726922
  N         3.7708024022        7.0452967536       12.7471695710
  O         3.5920827451        5.1754634136       14.1229377302
  H         5.7647314146       10.1256464229       30.9301756224
  H         5.3396084912        9.2382374510       29.4699968024
  C         5.0739557532        8.2221780918       31.4843580923
  H        -6.8421847237        8.5142393815       25.1817777237
  H        -7.3938586230        8.7628996613       26.7845960656
  C        -7.8959532440       10.2462295533       25.3276011969
  C        -2.9343852039       15.8555453413       35.2239469695
  S         4.0560718969        9.3831653734       11.5163037854
  C         3.8988595630        6.2851334925       11.4731549966
  H         6.0340002555        8.2410927086       32.0645307304
  H         4.1703950505        8.3022433196       32.1266792629
  C         4.9496823004        6.8355952184       30.7968094570
  H        -7.3172308062       10.7699357506       24.4487825739
  H        -8.2023242402       11.0476177447       26.0031309145
  C        -9.2584172223        9.7021589831       24.7446045478
  H        -2.6463135527       16.8912628842       35.1635502269
  C        -3.4375396361       15.5202477148       36.4452653858
  H         4.4300933125        6.9185975284       10.7185543988
  H         4.5629151398        5.3707560647       11.5574914020
  C         2.4994972410        5.9715957025       10.8550957765
  H         4.2031630287        6.9675932251       30.0833280757
  H         4.6162525119        6.1122810642       31.4917562741
  C         6.2814055924        6.3754183807       30.2339641871
  H        -9.5548908716       10.1596193708       23.7564567215
  H        -9.1693917828        8.6427193879       24.4748996876
  C       -10.3197108425        9.8372895216       25.8027296099
  S        -3.9298441513       13.9882486981       36.9475304359
  C        -3.6204539929       16.5447587063       37.5054084246
  H         1.8498525115        5.3433534568       11.5034874844
  H         2.0407428156        6.9579846305       10.4805022167
  H         2.6817099793        5.3351761504        9.9836831362
  H         6.2088833189        5.9012021236       29.2406413416
  H         6.7579801919        5.7460039935       30.9521104079
  H         7.0473631993        7.1076736589       30.2163913677
  H        -9.8765856120        9.3997236055       26.7206458444
  H       -11.1156779020        9.1004611716       25.5140490472
  H       -10.6488766536       10.8624188980       26.0279230249
  C        -4.4037366738       14.7493414899       38.4481132599
  N        -4.2855658812       16.0832456166       38.5308838022
  O        -3.3643078210       17.7410974798       37.2869821792
  S        -5.0336938049       13.9015011908       39.8020970572
  C        -4.3779849842       16.9316579310       39.7482196029
  H        -4.4421337453       17.9924268050       39.3994108958
  H        -5.1725004834       16.6578440211       40.4902998495
  C        -3.0508344256       16.8174901888       40.4757731824
  H        -3.1142184948       16.9638633343       41.5826944038
  H        -2.5814749052       15.9144075860       40.2192870676
  H        -2.5171980650       17.6549265138       40.1197476331
