352
i=
  H         2.3736365107        3.4802395702       13.0823250240
  C         3.0155309333        2.5712476966       12.8089958072
  H         2.6393571213        1.8002100367       13.5170327705
  C         2.5808545777        2.1334943840       11.3677309789
  C         4.5471397936        2.7494959976       13.0100773140
  C         3.4931954264        2.3571339330       10.1525693894
  H         1.6394566815        2.6964251772       11.3012108620
  H         2.2673771003        1.0067729859       11.3812973865
  H         4.9412930355        3.2965246535       13.9055089096
  H         5.0143886230        3.3519052875       12.2337432280
  H         5.0722274504        1.8137208689       12.8883340285
  C         4.4659675287        1.2315369163        9.7660505201
  H         2.8990272308        2.4984134419        9.2743993008
  H         3.9213670648        3.3443679514       10.1790352342
  C         5.2774654118        1.4875630388        8.5799932114
  H         3.8113696087        0.3379418887        9.6777540280
  H         5.1027590260        1.0725703706       10.6236510558
  C         6.4794155887        2.4463467147        8.8213229949
  H         4.6281385045        1.8511068117        7.8137225642
  H         5.7421323881        0.5227405672        8.2254137421
  C         7.7215445513        1.8270666031        9.4670628832
  H         6.7636714146        2.9040734378        7.8301593465
  H         6.1547820272        3.1945628397        9.4857352280
  C         8.9924087570        2.7817765886        9.6251297280
  H         7.9915052735        0.9575835506        8.8654439943
  H         7.4200013461        1.3526494749       10.3453322414
  C         8.6232527242        4.1038858726       10.2942783001
  C         9.4049677047        3.4769029961        8.2939433488
  C        10.2021989237        2.0495454605       10.2004609252
  C         8.8672216218        5.2052066724        9.4813007824
  C         8.1709667645        4.5148636783       11.5443621443
  C         9.3248714976        4.8405453759        8.1878938131
  C         9.8670014063        2.8417465823        7.1714703183
  H         9.8159527638        1.5521487367       11.0903675749
  H        10.3742815859        1.1761821711        9.5064585151
  C        11.4746435136        2.8435249381       10.5293481266
  S         8.5102749631        6.7169881603       10.1595045385
  C         8.1714649706        5.8694914868       11.6291093571
  H         8.0305045442        3.8297810783       12.3598097154
  C         9.6560203561        5.4576517695        6.9807962687
  H         9.9685833302        1.7815444085        7.2126051873
  C        10.2266515556        3.4660815629        6.0294682946
  H        11.0759255994        3.8219299371       10.8030329399
  H        12.0769985006        2.9897520550        9.6474126516
  C        12.3669160259        2.2431645665       11.6226779491
  C         7.8379151969        6.6256788125       12.9100841603
  C        10.1630003822        4.8215488552        5.8624891511
  H         9.5962278077        6.5681238457        7.0464424990
  C        10.6443109593        3.0473945735        4.7690064541
  H        13.1825206679        3.0162586275       11.7118531819
  H        12.8443937595        1.4017142237       11.2603722964
  C        11.7422656564        2.0549684541       13.0264501173
  C         7.9540049987        8.0496565449       13.1158213336
  C         7.2448879064        5.7922231192       13.9972501167
  C        10.5469282387        5.4503644917        4.5586753773
  C        10.8999848498        4.1271286751        3.9324015268
  S        11.0192189816        1.4982255391        4.1198722760
  H        10.9901049159        2.8435301526       13.3735615170
  H        11.0313838461        1.1710750068       13.0120912797
  C        12.7526826378        1.9593180455       14.1805140395
  N         8.2142489318        9.0102903212       12.1777620801
  C         7.5941422949        8.5663111241       14.3218576059
  C         6.9834317416        6.3571050946       15.2678930878
  H         6.7983223661        4.8514865966       13.8014819260
  C        11.9102036802        6.3197326994        4.5849760099
  C         9.4128971187        6.1468373066        3.7512854828
  C        11.3947549536        3.6576468815        2.7000535941
  C        11.4224269110        2.2815838002        2.6232405739
  H        13.3283246283        2.8722297068       14.0816441716
  H        13.3840151555        1.1010483753       13.9845715444
  C        12.2232995400        1.9435700233       15.5650239573
  S         8.2604766871       10.4769177074       12.8916243367
  N         7.7211867100        9.9454935718       14.3185700068
  C         7.1169859457        7.8254325215       15.4349672439
  H         6.6288401328        5.6851374135       16.0767953637
  H        11.7251652638        7.2470255241        5.1366131961
  H        12.1835978547        6.6771895091        3.6365460337
  C        13.2157303725        5.5544462568        5.0829438695
  H         8.9776477210        6.9315900559        4.3780504279
  H         9.8767107078        6.7539706531        2.9994125646
  C         8.1619376347        5.3161258956        3.3710527323
  H        11.6293964881        4.3096015227        1.8568474063
  C        11.8093295667        1.4910521080        1.2990865984
  H        11.6569731774        2.8783900486       15.6965154203
  H        11.5278160212        1.1262639377       15.7706159375
  C        13.3128881903        2.1378843308       16.6118725181
  C         6.8703158015        8.5519248553       16.6447808484
  H        13.0257476035        5.0936253279        6.0247418569
  H        13.3772634956        4.7206116245        4.3695031389
  C        14.5746157441        6.3514467705        5.2143165408
  H         7.8159562393        4.9588646653        4.3298256039
  H         8.4660318856        4.4487480718        2.7406565064
  C         7.1543140195        6.2045083694        2.7326291639
  C        11.8082912209        0.0534772258        1.1223101943
  C        12.1485475874        2.2170931543        0.0686726185
  H        13.9827640696        3.0100412617       16.2541888462
  H        14.0151163791        1.2653598663       16.5149694969
  C        12.8121691454        2.3777405347       17.9563528177
  H         7.2385633051        9.5076372396       16.6820672087
  C         6.4086949882        8.1131978706       17.8852865114
  H        14.4896653458        7.0326693616        6.0617572047
  H        14.8566875261        6.9006875365        4.3606212110
  C        15.7399513190        5.3311111862        5.4008190893
  H         6.8701210742        6.7680178290        3.5881938239
  H         7.4360485544        6.9921819925        1.9655643431
  C         6.0325074385        5.3185601840        2.2995081465
  N        11.4664081348       -0.9100555437        2.1326052913
  C        12.1129421794       -0.5649126803       -0.0459891484
  C        12.4152765504        1.5940331197       -1.1404115072
  H        12.1131690840        3.2776836050        0.1694250608
  H        12.0010037061        1.7530656892       18.1569880369
  H        12.4271606609        3.4207645126       17.9249008534
  H        13.5309346567        2.2607548128       18.7230217810
  S         5.7526962264        6.5576919389       18.3901375635
  C         6.3888669502        9.1292438194       18.9461950178
  H        15.4013541588        4.5064439262        6.0568670092
  H        16.0079810646        4.8948494221        4.4083553931
  C        16.8709395465        6.0998154857        6.0247269686
  H         5.6574431270        4.7406861280        3.1236363342
  H         6.5206705485        4.5604561482        1.7420765485
  C         4.9746747184        5.9995555965        1.3936442795
  S        11.6861217482       -2.4074783360        1.5306740718
  N        12.0842667906       -1.9254981566        0.0356912029
  C        12.3898728908        0.1164148516       -1.2493050474
  H        12.5592758520        2.1759207899       -2.0174722000
  C         5.6771416340        7.3111406819       19.9732977614
  N         5.9074791738        8.6243866738       20.0841354344
  O         6.7002700532       10.2939718635       18.7174864092
  H        17.4005026550        6.7128508776        5.3112734947
  H        16.5682477431        6.8582671554        6.7137928766
  C        17.7831897085        5.1475265364        6.8696408687
  H         5.3161477939        6.3108958202        0.4035407352
  H         4.3139007325        5.1494225551        1.1639552143
  C         4.1727555490        7.1730542461        2.0406058546
  C        12.6513529362       -0.6134137643       -2.4429085778
  S         5.1419453926        6.4589271132       21.4663090154
  C         5.8016660056        9.4062782907       21.2961333682
  H        17.3147031036        4.9481122842        7.8497841530
  H        17.8214948345        4.2456955150        6.3007465019
  C        19.1792902624        5.7814094754        7.2527058176
  H         4.5616993264        7.3532900136        3.0011437674
  H         3.1271726260        7.0861999041        2.2817460862
  C         4.3914755467        8.4860702822        1.3549120759
  H        12.4040031600       -1.6466591536       -2.4760828723
  C        13.2091298470       -0.2346668336       -3.6421336532
  H         5.1345559488        8.9318077821       21.9814859045
  H         5.3879521151       10.3193953183       21.0093758507
  C         7.1342979294        9.7959648255       21.8905629683
  H        19.7269151665        5.2802117852        8.0287048153
  H        19.0965022216        6.7865712940        7.5696659617
  C        20.0526574969        5.6643396352        6.0170133828
  H         5.4109924085        8.5830550656        1.1119344407
  H         3.9769966862        8.3930257922        0.3719008295
  C         3.6736010390        9.7257482358        2.0130145429
  S        13.8500829011        1.2546425222       -4.1451991702
  C        13.2046955384       -1.2887423175       -4.6520979996
  H         7.9130836959       10.2023593955       21.2217915253
  H         7.4860650492        8.9742451173       22.4698073554
  H         6.8727581503       10.6435617936       22.4476254980
  H        19.6124019683        5.9715976198        5.0919639573
  H        21.0135329002        6.2271216641        5.9728028160
  H        20.2685985206        4.6161552718        5.8833827259
  H         3.8212710717        9.7185677288        3.1312035345
  H         4.0320135607       10.6387166293        1.6778927030
  H         2.6297293863        9.7461792641        1.7948881545
  C        14.0137630125        0.4964080397       -5.6832778039
  N        13.7628277768       -0.8065852299       -5.7619730235
  O        12.7481158871       -2.4020575865       -4.4624638908
  S        14.5497513366        1.4088157362       -7.1203010445
  C        14.0240877421       -1.6928434141       -6.8834051181
  H        13.9792058751       -2.7133634769       -6.5972069301
  H        15.0178735769       -1.5384190618       -7.2220800884
  C        13.0111449623       -1.5156962424       -8.0470569654
  H        12.9806370306       -2.4776737101       -8.5111038425
  H        13.2847710449       -0.7575290744       -8.7818709842
  H        12.0338144724       -1.2457082512       -7.6540894082
  H        -0.9765564100       13.3014383993       16.1528538289
  C        -1.9102097050       13.8232192924       16.1912220568
  H        -1.7475876667       14.5541488051       15.4317308403
  C        -2.2910699735       14.5154239543       17.5625237110
  C        -2.9676368061       12.8808665557       15.7154994572
  C        -2.8398946133       13.5742628480       18.6630866121
  H        -1.3306750546       15.0184896551       17.7634878896
  H        -3.0362447091       15.2838818927       17.5223937508
  H        -2.7363161200       11.9107647891       16.1779673355
  H        -3.9252914139       13.0489320927       16.1066598479
  H        -2.9500216854       12.7980419983       14.6341222054
  C        -1.8287925537       13.5523110798       19.8464109934
  H        -2.9965552543       12.5706566423       18.3287860120
  H        -3.7737491685       13.9498638019       19.0396365623
  C        -2.4565802370       13.2628027475       21.2031144357
  H        -1.0485828803       12.8165565741       19.6003299402
  H        -1.3114545521       14.4671130159       19.8789674926
  C        -1.3586257756       12.8781059764       22.2256746673
  H        -3.2101111779       12.5509248381       21.1394669953
  H        -2.9373062871       14.1929581926       21.5257023184
  C        -0.1248315836       13.8230708039       22.4301060360
  H        -1.8764601238       12.9362490123       23.1648785102
  H        -1.0511133149       11.8543600013       22.0709831492
  C         1.0631763998       13.1727715067       23.2104215940
  H         0.2483519647       14.0586817402       21.4466575950
  H        -0.3089518654       14.7966556083       22.8548475498
  C         1.4561844665       11.8201497595       22.5340699535
  C         0.6463731650       12.4719090596       24.4562349756
  C         2.2790628629       14.1100895652       23.3658564472
  C         1.3019113334       10.7393685671       23.3550871012
  C         1.9772310334       11.4426776382       21.3298476052
  C         0.8214206570       11.1429793476       24.5857760651
  C         0.1153673539       13.0888349331       25.6134557492
  H         2.6743472457       14.3008729590       22.3605117430
  H         2.0043190943       15.1051857399       23.8006123363
  C         3.4647657252       13.3006289820       24.0613518799
  S         1.7816613403        9.2236883387       22.7474131387
  C         2.1059023251       10.1072152813       21.1664910836
  H         2.0522019638       12.1946877744       20.6031256386
  C         0.5028615744       10.4329889048       25.7473448767
  H         0.0592516848       14.1598907996       25.6774690014
  C        -0.2639576423       12.3757340693       26.7276508853
  H         3.8199294912       12.5506394473       23.3993245553
  H         3.1381790038       12.9454036301       25.0192454472
  C         4.6977307015       14.1702254991       24.3049106486
  C         2.4804246754        9.4191295267       19.8952252050
  C        -0.0623128318       11.0209714590       26.8944375199
  H         0.6100951106        9.3904935127       25.7350375615
  C        -0.5987333946       12.7885007497       27.9886763779
  H         5.4098821659       13.4872934156       24.7165328281
  H         4.5380283602       14.7735558538       25.1290968547
  C         5.2145616666       14.9196021939       23.0236671851
  C         2.4176511228        8.0079750036       19.6787223006
  C         2.9163515397       10.2725970258       18.7568577508
  C        -0.3884778687       10.3572555934       28.1472265373
  C        -0.7323665278       11.6667918816       28.8050399919
  S        -0.7868374960       14.2883192316       28.7780715159
  H         5.9457242132       15.7126958636       23.3364883267
  H         4.4455102488       15.6095701257       22.6665584252
  C         5.9439024825       14.0260637426       22.0062568519
  N         2.0727284067        6.9817624624       20.6086011577
  C         2.7481884224        7.4629657284       18.4282434380
  C         3.2402321672        9.6829360062       17.5134633658
  H         3.0883690846       11.2964598914       18.8975345567
  C         0.8246433934        9.6697977701       28.7206913577
  C        -1.5960880999        9.4121943823       27.9387348815
  C        -1.1546116402       12.0508381129       30.1040239732
  C        -1.1994211364       13.4181329387       30.1830485745
  H         6.7880339092       14.6495500408       21.6699671083
  H         6.1558584619       13.1505212499       22.5820968019
  C         5.0867442014       13.7832774558       20.7198116520
  S         2.1775076722        5.4902942207       19.8782221060
  N         2.6280373383        6.0541871404       18.4017493946
  C         3.0664044368        8.1949679822       17.3064317522
  H         3.7100127570       10.3001726050       16.7929320411
  H         1.2413868832        8.8966294693       27.9900362830
  H         0.4788799327        9.0043233651       29.5530687014
  C         1.8609781891       10.6074461034       29.1497034512
  H        -1.2528966633        8.6689270128       27.1845126178
  H        -1.9235196433        9.0415453393       28.8588103106
  C        -2.8903348871       10.1415208700       27.2995399408
  H        -1.3210458791       11.2613337686       30.8216053514
  C        -1.5236513585       14.2175475862       31.4754181905
  H         4.6994801617       14.7561613792       20.2385389581
  H         4.2299296627       13.1440298218       21.0304469426
  C         5.9514376724       13.0260329627       19.7327248747
  C         3.2712189199        7.4988828846       16.1191054994
  H         2.2246695989       11.2826283851       28.3722763191
  H         1.5648418217       11.1982494437       29.9988392150
  C         3.0510412281        9.8416969931       29.5985819623
  H        -2.7820021848       10.3967562684       26.2686337344
  H        -3.0492220376       11.0597217854       27.7295265639
  C        -4.1713835683        9.2762133881       27.3608873074
  C        -1.5870853352       15.5991007468       31.6281385527
  C        -1.6096922825       13.4385713314       32.7503951056
  H         6.6304587257       12.4233817702       20.1921389831
  H         5.4235158120       12.3680434399       19.1957364810
  C         6.8428423938       13.9609836844       18.8714526464
  H         2.8814428867        6.4592334506       16.0962687831
  C         3.7529114232        7.9207881012       14.8740705319
  H         3.5425873757        9.3089720699       28.7547508542
  H         2.8109051065        8.9690411271       30.2362349196
  C         4.1526424787       10.7715832330       30.2335959245
  H        -4.0863275232        8.3689350367       26.6300054448
  H        -4.2650182302        8.9798689167       28.4128816754
  C        -5.3543123710       10.1096598945       26.9216193182
  N        -1.2160991045       16.5228154871       30.6827692437
  C        -1.9005090544       16.2284374045       32.8548510605
  C        -2.0852355298       14.0262697298       33.9563918023
  H        -1.4190507689       12.3774980085       32.6553426695
  H         7.6530839178       13.4941711540       18.3182310866
  H         6.3139182112       14.6328376562       18.2259721739
  H         7.3692555704       14.6041767695       19.5434084436
  S         4.2326840353        9.5040134382       14.2912355234
  C         3.8679825462        6.8511823933       13.8775771331
  H         4.1263492195       11.7026428052       29.6130174631
  H         3.9246710601       11.0477401145       31.2940746577
  C         5.5788582035       10.2699134366       30.1289840219
  H        -4.9485127855       11.0550485423       26.5399587225
  H        -5.9657091809       10.3962746493       27.7910310598
  C        -6.1822194085        9.5961372041       25.7713428746
  S        -1.3245118189       18.0016897037       31.2267154138
  N        -1.7375894727       17.6557751555       32.7046995068
  C        -2.2003833979       15.5170538937       34.0765418509
  H        -2.1554755402       13.4372580539       34.8623444658
  C         4.5298572998        8.6818525361       12.7294387151
  N         4.2454359750        7.3783340627       12.6961929703
  O         3.6091883031        5.6967471196       14.1071324477
  H         6.2614799135       11.0322216443       30.4353359444
  H         5.8578883752       10.0049934954       29.0429963146
  C         5.8466864930        9.1420725976       31.1528562359
  H        -5.6140204981        9.5207349512       24.9292295875
  H        -6.7107831078        8.7041717321       26.0892565334
  C        -7.1743613381       10.5503963768       25.2004071352
  C        -2.4422019077       16.2514076696       35.3003677334
  S         4.9852125809        9.4896067239       11.2445508883
  C         4.2272445260        6.4529961306       11.5404395846
  H         6.1281426292        9.7257419284       32.0265064606
  H         4.9571601542        8.5575939052       31.2751444181
  C         7.0388528009        8.2282607183       30.7443580353
  H        -6.8053570446       10.6899503821       24.1790850438
  H        -7.1010144965       11.5404482981       25.5147062167
  C        -8.6490617614       10.0868108134       25.2248888690
  H        -2.0718829569       17.2722770695       35.1985754366
  C        -2.9313244044       16.0343433604       36.6071331026
  H         5.0965342123        6.6521406617       11.0525112289
  H         4.2482630633        5.3710569892       11.8396584524
  C         2.9354352015        6.7343770230       10.6008734565
  H         7.5474792930        7.9974247898       31.7102430706
  H         7.8156181477        8.6374058227       30.0766773933
  C         6.5937265502        6.8910219021       30.1167684261
  H        -9.1220548874       10.5785903494       24.3539731473
  H        -8.6104053149        9.0362186654       25.0050364525
  C        -9.5120161741       10.2707608405       26.4891459550
  S        -3.3263494774       14.4380579176       37.2078969598
  C        -2.9486447348       17.1901790659       37.5357626268
  H         3.2494214797        6.7079626221        9.5906432031
  H         2.1401392475        5.9386263312       10.7172029571
  H         2.4611011842        7.6757674523       10.8514132652
  H         5.9400328532        7.1958469551       29.3005604454
  H         5.9278507532        6.2945730335       30.7266377241
  H         7.4765186190        6.3361923580       29.6779277372
  H        -9.2908975476       11.1096375213       27.1477446269
  H        -9.2887559786        9.2652288314       26.9958475889
  H       -10.5752856115       10.2455146933       26.3187927159
  C        -3.6132772540       15.3881596512       38.7136556221
  N        -3.4373144351       16.7278863813       38.7018528187
  O        -2.6452964641       18.3552648345       37.1958105985
  S        -3.9190801866       14.5972085212       40.2106179904
  C        -3.6913354080       17.6216930209       39.8161391707
  H        -3.8241936421       18.6347571692       39.3833576742
  H        -4.6232521003       17.2815665816       40.2766258641
  C        -2.5706446469       17.5070457065       40.9131466491
  H        -2.7340290973       16.7843933615       41.7430592127
  H        -1.5786614837       17.3605892917       40.5470915144
  H        -2.4887660914       18.5745560401       41.4145125783
