352
i=
  H         2.6149396218        1.3752625686       14.2334325299
  C         3.4462592730        1.8525673128       13.7441250726
  H         4.1767003346        1.0262765420       13.5681757366
  C         3.0013704372        2.5032390563       12.4575374550
  C         4.1375846918        2.9255797706       14.6907661801
  C         3.9906733395        2.7678391347       11.3294569070
  H         2.5613758820        3.4340749661       12.7832929803
  H         2.1645277912        1.9399370713       11.9723585450
  H         4.5687810851        2.5258158889       15.6062610169
  H         3.4810209635        3.6430556838       15.0670876886
  H         4.9768786508        3.3848325125       14.1122704388
  C         4.7865661737        1.5100676838       10.8563743122
  H         3.4587029637        3.3496059848       10.6029884088
  H         4.7136848776        3.4711530048       11.7349810839
  C         5.3285309654        1.7358193510        9.3812880201
  H         4.0154664699        0.7887141090       10.8537627289
  H         5.6217640750        1.3217769424       11.5624766961
  C         6.4479597646        2.7460296192        9.2669670372
  H         4.4954051803        2.2261101872        8.8687002602
  H         5.4250149095        0.8408058315        8.7242583103
  C         7.8106973699        2.0081971504        9.4245581514
  H         6.3170257295        3.1313386937        8.2429557386
  H         6.2909313691        3.5572886666        9.8660037300
  C         9.0670955876        2.9525148593        9.6256968040
  H         7.8725881823        1.4986084013        8.4826063383
  H         7.7858016967        1.2546346645       10.1554346552
  C         8.5955521462        4.2713979162       10.1927474806
  C         9.3996236541        3.5911218718        8.3243134994
  C        10.3744872111        2.2975835198       10.1362190617
  C         8.7373630665        5.3536572728        9.3305780621
  C         8.2345755147        4.7034485949       11.4218051549
  C         9.2654926120        4.9466482986        8.1457775129
  C         9.9058996354        2.9135883467        7.1856731798
  H        10.0989002576        1.8028134454       11.0997009500
  H        10.6275392957        1.5545404612        9.3860711806
  C        11.5213831073        3.2410666384       10.4570548694
  S         8.2499054051        6.8410686600       10.0066784374
  C         7.9824675814        6.0010526923       11.5330770900
  H         8.1233024504        3.8719639826       12.0709768935
  C         9.6591127490        5.5046132755        6.9582792914
  H        10.0897737413        1.8437769668        7.2312305927
  C        10.2246337308        3.4912652136        6.0045785209
  H        11.1692227428        4.1475331903       10.8565886617
  H        12.0693053869        3.5505536688        9.5815578731
  C        12.5153406096        2.5114499233       11.3506869346
  C         7.4520396168        6.5870961727       12.7687534490
  C        10.0726661624        4.8418941460        5.8236741005
  H         9.5285020113        6.5569384167        6.9967087552
  C        10.6306804268        3.1249523004        4.7301062885
  H        13.5857388117        2.7280305113       11.0550062408
  H        12.4680456119        1.4953392261       11.0947866133
  C        12.3117897545        2.8948844012       12.8327905239
  C         7.4977999139        7.9697441654       13.0598602662
  C         7.0722122537        5.7156707732       13.8642107789
  C        10.5696000499        5.5928725426        4.5945713926
  C        10.7686867583        4.2111703836        3.9013867107
  S        10.9639066580        1.6043520540        4.0021615225
  H        13.0723683578        3.6409164913       13.0443517271
  H        11.2659780509        3.3069155234       13.0787618594
  C        12.6724010797        1.7259079071       13.7903976291
  N         7.8989356000        8.9196940156       12.1339091447
  C         7.3181347398        8.5248919506       14.2946538691
  C         6.6882782352        6.2896275234       15.1085257605
  H         7.0243637010        4.6189834465       13.8171214686
  C        11.9643138747        6.2469857902        4.7678285041
  C         9.5079953102        6.5255580742        3.9154157851
  C        11.0475369914        3.7714728822        2.6235150519
  C        11.2294033776        2.4057259977        2.5188406714
  H        13.7046223713        1.6832908176       13.7722614508
  H        12.3389298065        0.8083122553       13.2809383350
  C        12.0680660818        1.6960540325       15.2355691799
  S         7.8202274735       10.3954674934       12.7456771375
  N         7.4998098148        9.8952459972       14.2523968086
  C         6.8511320071        7.7982089404       15.3782701939
  H         6.2013123146        5.7718392533       15.9018059429
  H        11.8920033682        7.2618675590        5.1571300984
  H        12.2626061273        6.5087506358        3.7779990236
  C        13.0433845978        5.4646706237        5.3957593437
  H         9.2776886032        7.2822116035        4.6217805228
  H         9.7742460296        7.1182992753        3.0401439363
  C         8.2422725131        5.6776897069        3.5666190600
  H        11.0903782552        4.4311293798        1.7531005475
  C        11.5956352316        1.7096414748        1.2323376722
  H        11.0783493757        2.0660842776       15.1562080075
  H        12.0400686619        0.6161739393       15.5025628829
  C        12.8903777068        2.4992289567       16.2402568030
  C         6.4933976346        8.4417179810       16.5575599126
  H        12.6662216204        4.9636668240        6.3286037096
  H        13.2342610027        4.5645825212        4.7805486235
  C        14.1999669908        6.3150681676        5.5416492054
  H         7.8537395315        5.0927783860        4.4117146050
  H         8.5734495478        4.9338917437        2.8376103366
  C         7.0525830451        6.5475882462        3.0675240499
  C        11.7921558673        0.3158030938        1.1578805560
  C        11.8416597656        2.4750697767       -0.0336555222
  H        12.6817406949        3.4953341103       15.9853371959
  H        13.9689637119        2.2244111138       16.3249338778
  C        12.3496262611        2.1274105919       17.6221560121
  H         6.5908690708        9.5109992359       16.5334781763
  C         6.1665246059        8.0566252225       17.8610062833
  H        14.1251876912        7.1353027423        6.2887704228
  H        14.5000396156        6.8290548414        4.6189979821
  C        15.2615570535        5.4070743877        6.1113994663
  H         6.8184370385        7.3849481442        3.7423013396
  H         7.4282529656        6.9254869883        2.1696025320
  C         5.7908135041        5.6992229404        2.8943854176
  N        11.4076325313       -0.6447247436        2.1935989020
  C        12.0603676163       -0.3763283691       -0.0153961309
  C        12.0766632180        1.7562622739       -1.1743785385
  H        11.8621584451        3.5888573607       -0.0509993738
  H        12.4148101406        3.0573934117       18.1731640985
  H        13.0248639877        1.5052024097       18.2401816172
  H        11.3534166362        1.7281125196       17.7451732993
  S         5.9402214354        6.4992679218       18.3962751110
  C         6.2941690935        9.1387652591       18.9054115051
  H        14.8527134729        4.7355328266        6.8952288455
  H        15.7487835285        4.8137820002        5.2957341259
  C        16.3825826517        6.3140293083        6.5986628943
  H         5.6476613928        5.3498189658        3.8337738045
  H         5.9377369003        4.8671631917        2.2474538954
  C         4.6026661774        6.4768883969        2.5019302540
  S        11.4815999809       -2.1074026367        1.6296652640
  N        12.1418380171       -1.7735057323        0.1442066464
  C        12.1972794355        0.2717912518       -1.2506143684
  H        12.1049302169        2.2531101190       -2.1405121228
  C         5.8974551854        7.2251008449       19.9467888641
  N         6.0019609587        8.5512251983       20.0321129200
  O         6.5360965363       10.3702073431       18.7323262391
  H        16.7275162264        7.0510753861        5.8933499701
  H        15.9508318917        6.9163653154        7.4792479851
  C        17.5360744150        5.5835062630        7.2063152774
  H         4.6613254814        6.7174956923        1.4353044554
  H         3.8463776115        5.7236987036        2.6312577378
  C         4.1669527372        7.7650066734        3.3089506803
  C        12.6287937280       -0.4618543885       -2.4117683214
  S         5.7112595843        6.4502422188       21.5424682119
  C         6.2643347591        9.2042018699       21.3445102360
  H        17.7712949380        5.9290331799        8.2201217321
  H        17.3039323482        4.5284730747        7.2718429464
  C        18.6937818677        5.8919760008        6.3490920100
  H         4.6416153323        7.9793064832        4.2813475728
  H         3.0948306323        7.7252017885        3.6296109164
  C         4.3365105494        9.0096576152        2.4450377267
  H        12.7074336448       -1.5381336532       -2.2913911370
  C        13.1124527920       -0.1009936601       -3.6691130771
  H         5.4484929422        8.9839675692       22.0750556360
  H         6.1524481904       10.2388557435       21.1910614101
  C         7.7553648753        9.0291070522       21.8542895427
  H        18.7596628500        6.9226422850        6.1680835531
  H        18.4970476384        5.4399413539        5.4335320602
  C        20.0690791761        5.5102196919        6.9735686632
  H         4.7469898286        9.8526668522        3.0326423052
  H         5.0603312281        8.8455320649        1.6577351346
  C         3.0326393760        9.4234501562        1.7798058550
  S        13.4470198188        1.4267403901       -4.1816838302
  C        13.4212284302       -1.1727328392       -4.7072909444
  H         8.2224489225       10.0249834478       22.0500027435
  H         8.2942344948        8.6505697786       21.0074903872
  H         7.8402841894        8.3738335708       22.7330769550
  H        20.1726512688        4.4182382942        7.1671245922
  H        20.7877379384        5.6742154493        6.2350903091
  H        20.4346940188        6.0455021476        7.8449542980
  H         2.5042748426        8.5275993751        1.6099822609
  H         2.4890974237        9.9793297220        2.4359284574
  H         3.2001433445        9.9529106273        0.8535076136
  C        13.8595523011        0.7010944923       -5.7613490904
  N        13.8476699534       -0.6468425582       -5.7952663788
  O        13.1808390132       -2.3716556728       -4.6069733442
  S        14.2614371985        1.5181332123       -7.1961293413
  C        14.0394183497       -1.5658031814       -6.9588639130
  H        14.5252799288       -2.5168477554       -6.6485485571
  H        14.7792437956       -1.1401457874       -7.6498423997
  C        12.7515122288       -1.8067601719       -7.7459569003
  H        11.7953236240       -2.0984220903       -7.1793828560
  H        12.8958938999       -2.6453625568       -8.3811220116
  H        12.5880382709       -0.8996490885       -8.3841801079
  H        -2.8648568772       14.8657171631       16.7156244257
  C        -2.9962213184       13.8025591379       16.7555851077
  H        -3.9659942642       13.6357079863       17.1166754533
  C        -2.0492145726       13.2014397871       17.7307107421
  C        -2.7760762161       13.3342092631       15.2968254401
  C        -2.1659009590       13.6950118892       19.1780224505
  H        -2.0654594028       12.1170841791       17.6889326459
  H        -1.0901861630       13.5335300765       17.3490029912
  H        -3.2964097147       12.4117236910       15.1073401550
  H        -3.2557672705       14.1704436698       14.7350610264
  H        -1.7644842769       13.0104059272       15.0067399445
  C        -2.7805077337       12.6824044277       20.1240391683
  H        -2.6595506624       14.6824695310       19.3448450831
  H        -1.1735361399       13.9310256063       19.4361958643
  C        -2.5270795275       13.0497200098       21.6486797682
  H        -3.8622768216       12.5467983648       19.8784316143
  H        -2.3286771340       11.7727810155       19.8647657401
  C        -1.1817255511       12.5572670833       22.1405535866
  H        -3.2611611725       12.4987193088       22.3175083780
  H        -2.7303803861       14.1214010403       21.8561327410
  C        -0.0720461145       13.5904558716       22.5682187190
  H        -1.4312420501       11.9800732954       23.0166138822
  H        -0.8240241834       11.9178654093       21.3671290997
  C         1.1076415445       12.9156287284       23.2677326757
  H         0.2479860691       14.0993881658       21.6688888504
  H        -0.5706339326       14.3832936787       23.1038135764
  C         1.4792468982       11.5087718463       22.5985899359
  C         0.6866947224       12.1764402260       24.4562221414
  C         2.3390707706       13.8896325781       23.4904616286
  C         1.1696560801       10.4726633091       23.3703901879
  C         2.0579579600       11.1364622366       21.3545466256
  C         0.6377081009       10.8240574992       24.5096212755
  C         0.1209203047       12.8689690153       25.5124748587
  H         2.8187628625       14.3431853715       22.6529991076
  H         1.9061893933       14.6812680663       24.1166915672
  C         3.5239478364       13.2038640027       24.1924344091
  S         1.5533578683        8.9345911286       22.5844940985
  C         2.1235997195        9.8071369832       21.2068812378
  H         2.3773840997       11.9464856683       20.6677259613
  C         0.1603324837       10.2295440281       25.6807975497
  H         0.1465943679       13.9479190476       25.6498806798
  C        -0.2898493493       12.2601694785       26.7221877912
  H         3.8040690714       12.4304440968       23.5631610168
  H         3.2134435696       12.7102487316       25.1238571942
  C         4.8189703774       14.0723127278       24.5138081220
  C         2.6003216634        9.1617321371       19.9497995317
  C        -0.3461052641       10.8806087474       26.7910168143
  H         0.1727069452        9.1426835360       25.7627878144
  C        -0.6821372430       12.6539199340       28.0309089977
  H         5.5525810960       13.4234282769       24.9918993848
  H         4.4846774648       14.8339788744       25.1631215937
  C         5.4420793169       14.7624238911       23.3377250134
  C         2.5791776656        7.7680776750       19.6685203223
  C         3.1091618714       10.0685141627       18.8216707212
  C        -0.7491347247       10.1881577523       28.0889773513
  C        -0.9179191999       11.5316099146       28.7936812710
  S        -0.9182618553       14.1696100720       28.8089993152
  H         6.2215914898       15.4066890412       23.7445147670
  H         4.7633714406       15.4782395607       22.8619012969
  C         6.1067764535       13.9085800235       22.2756600505
  N         2.3827201484        6.7808628847       20.6069598857
  C         2.7519023900        7.2786081134       18.4208612415
  C         3.3780300528        9.5122850400       17.5742623372
  H         3.3002556571       11.0725080212       18.9768464635
  C         0.2502686488        9.2317665096       28.7672110090
  C        -2.0854487038        9.4647572645       27.9441589752
  C        -1.2259775332       11.9224199462       30.1102597191
  C        -1.3420530487       13.2974633457       30.2444556588
  H         7.0892401265       14.2921192630       22.0505041850
  H         6.2726488541       12.9151440128       22.6802336310
  C         5.2501186160       13.9864743530       20.9039004902
  S         2.2907375010        5.3172825316       19.8427350623
  N         2.6723362614        5.8939927929       18.3335783209
  C         3.1667585061        8.0524119265       17.2774411728
  H         3.6924346767       10.1661250050       16.7491633972
  H         0.6521667097        8.6020870794       27.9631717212
  H        -0.2434979471        8.4878597295       29.3934639330
  C         1.4689887246        9.9489227421       29.4489525236
  H        -1.9382337048        8.5627303753       27.4395735157
  H        -2.4952980472        9.2198242979       28.9656134765
  C        -3.2258140534       10.2762311097       27.3098023662
  H        -1.4829286075       11.1749116572       30.8723215281
  C        -1.7345106082       14.0752922326       31.4660722990
  H         4.9532108268       14.9895734609       20.6047970690
  H         4.2704559192       13.5088855156       21.1976355415
  C         5.9886547115       13.3016510095       19.7223057194
  C         3.1398997002        7.3762667434       15.9917895377
  H         2.1288115601       10.3228628381       28.6199134767
  H         1.1006684308       10.7844498503       30.0173305292
  C         2.4614032975        9.0624899701       30.2334391936
  H        -2.9382221311       10.3754313226       26.2689570852
  H        -3.3146789246       11.2054214238       27.9069232120
  C        -4.5643986741        9.5491501930       27.5041919885
  C        -1.7263282685       15.4890316241       31.6385853269
  C        -2.0976916743       13.3401294552       32.6447131827
  H         6.6089666277       12.4442895202       20.1220752825
  H         5.3866602332       12.9877877741       18.8966896491
  C         7.0320615001       14.1760596786       19.0983419803
  H         2.8375136094        6.3907960530       16.0991018040
  C         3.5304295374        7.7262339095       14.7471056203
  H         2.5355661104        8.1041264629       29.7667760032
  H         2.0198262890        8.9511180993       31.2029963270
  C         3.8413466870        9.7168443954       30.5182100074
  H        -4.5750782099        8.6707551989       26.8696016441
  H        -4.9167380963        9.1668189578       28.4517264566
  C        -5.6746562591       10.3346956803       26.8691869677
  N        -1.4430107376       16.5351994851       30.7633795586
  C        -2.1705859305       16.0335874577       32.8657335398
  C        -2.3542314145       13.8765186163       33.8620042380
  H        -2.1666229486       12.2561961875       32.5993721886
  H         6.5577983753       14.9090914643       18.3993137114
  H         7.4319998916       14.6072907760       20.0017068562
  H         7.7693762762       13.5249452344       18.5631915137
  S         4.0292105521        9.3468093366       14.2842458992
  C         3.3142392431        6.7562271268       13.6530422073
  H         4.1427098270       10.3397490331       29.6091234987
  H         3.7039307699       10.1874234233       31.5322911586
  C         4.9599863649        8.7152569562       30.6435647382
  H        -5.2146031568       11.1335610800       26.2918174614
  H        -6.2886848515       10.7501900322       27.6340641247
  C        -6.5657061748        9.4886898029       25.8959476342
  S        -1.7453555446       17.9788255306       31.4082960723
  N        -2.1837970553       17.4361084204       32.8655307589
  C        -2.6217480065       15.2969139449       33.9882686279
  H        -2.5955528547       13.2859763094       34.7111520160
  C         4.1190912395        8.6303991876       12.6788909394
  N         3.6760384452        7.3617156434       12.5639823414
  O         2.9160161681        5.5792869140       13.8144011136
  H         5.7271335607        9.2236807305       31.2304105610
  H         5.3251244107        8.6233183476       29.6524241377
  C         4.8493362941        7.4398008941       31.3452957428
  H        -5.8015037204        8.9988422206       25.2475305240
  H        -7.0436296266        8.6375489640       26.4249555778
  C        -7.4424817573       10.5109288604       25.1294732748
  C        -2.9978359551       16.0253491383       35.2319981641
  S         4.8388273508        9.5374255290       11.3271497248
  C         3.5380116908        6.6902861731       11.2741171136
  H         4.3816675673        7.5397364387       32.3225274179
  H         4.1485418541        6.7887386026       30.7872734482
  C         6.1236613427        6.6262728521       31.5921843061
  H        -6.8020881865       10.7072584902       24.2388310302
  H        -7.5190697509       11.4989367225       25.5509155408
  C        -8.7728478821        9.8497202580       24.6719197601
  H        -2.8688438165       17.1154737624       35.2696646051
  C        -3.5028743275       15.6364407860       36.4717925004
  H         3.9795336591        7.1818067388       10.3930080812
  H         4.1600035979        5.7983581910       11.4965338450
  C         2.0808317272        6.1469286998       11.0711949721
  H         5.8153192616        5.5774627056       31.8225966825
  H         6.6056530871        7.0321057026       32.4435310121
  C         6.9376945073        6.5172911500       30.3032222901
  H        -9.1355904027       10.4828103668       23.8909249848
  H        -8.7245289263        8.8499267472       24.3221127059
  C        -9.8723078610        9.6314173475       25.7166885105
  S        -3.9710469319       14.0429393100       36.9961346016
  C        -3.6096243514       16.6026098912       37.5539816625
  H         1.3916897517        6.5367791505       11.7959049605
  H         1.6852609569        6.4306765006       10.0959223220
  H         1.9725518660        5.0574208411       11.2714718549
  H         7.3146829796        5.4779701115       30.3718660039
  H         7.8690230860        7.1831252420       30.4344593167
  H         6.2912365521        6.6731520301       29.4795937715
  H       -10.6945556915        9.2680849370       25.1950970562
  H       -10.1314046258       10.4959771732       26.2140818874
  H        -9.5382587145        8.9861200596       26.5384996174
  C        -4.4774993394       14.7348978672       38.5459026381
  N        -4.2771781293       16.0644428064       38.6407374382
  O        -3.3022102220       17.7764034540       37.4360406377
  S        -5.0320849139       13.8238157405       40.0308346283
  C        -4.4633964483       16.8732858517       39.8618753962
  H        -4.5340776735       17.9066966689       39.7193746338
  H        -5.4775074814       16.5953334502       40.2704311242
  C        -3.3758094208       16.6304732453       40.9650149546
  H        -2.6016973952       15.9111982663       40.6828321973
  H        -2.9367529347       17.5781222808       41.3481760522
  H        -3.8394249744       16.0326059260       41.7817624951
