352
i=
  H         4.0667538576        3.2614494641       12.4661265721
  C         3.1322228803        2.8450935403       12.2067474574
  H         2.4351926780        3.6162460867       12.2957689936
  C         2.8922084961        2.2007050163       10.8483830416
  C         2.5844735586        1.8926193040       13.2438876967
  C         3.9664118248        2.5837280706        9.7812348425
  H         1.9236981763        2.6330783654       10.5247079539
  H         2.8361184014        1.1021612644       10.9628759474
  H         3.2907294908        1.1052884622       13.6302427101
  H         1.5651674345        1.5344190338       12.9085230275
  H         2.3710955533        2.4715725458       14.1237927800
  C         4.7362906371        1.3885835228        9.2285500994
  H         3.4380631615        2.9944940924        8.9377207011
  H         4.5877418376        3.4368383850       10.1904079683
  C         5.4973223655        1.6962376516        7.9823731285
  H         4.0988406733        0.6257769360        8.9235409121
  H         5.4027355461        1.0802242349       10.0419355217
  C         6.6962455216        2.6636322064        8.2754287762
  H         4.7962459953        2.1932079563        7.3135780327
  H         5.8258157472        0.7517703511        7.5981047921
  C         7.9061307562        1.9406815981        8.8780199431
  H         7.0572198798        3.1703307206        7.3371100065
  H         6.4178961810        3.4945054469        8.9467078670
  C         9.1335003317        2.8657643485        9.1060914401
  H         8.2586550644        1.2645122280        8.1240696420
  H         7.7215155206        1.1802745848        9.6182378464
  C         8.7422276973        4.2184129187        9.7924059569
  C         9.6073934849        3.5803026176        7.8925664381
  C        10.3709762552        2.2517736646        9.8840528261
  C         9.0704494046        5.2797062803        9.0030240888
  C         8.4081855330        4.6215416032       11.1309143770
  C         9.5639289590        4.8962448723        7.7457680461
  C        10.1967471374        2.9461652578        6.7998351334
  H        10.1151501907        1.7340033719       10.8185945506
  H        10.6522391973        1.3518605275        9.3060682270
  C        11.5274306126        3.2551675072       10.0677131264
  S         8.6063991924        6.8198125727        9.6926721164
  C         8.2370480607        5.9737285377       11.1824085262
  H         8.2576177664        3.8395702599       11.9276993661
  C        10.0295930229        5.5655163389        6.6052789062
  H        10.1366233176        1.9012808875        6.7472270599
  C        10.5896817470        3.5703709788        5.6469702691
  H        11.1852117944        4.0694987536       10.7085784956
  H        11.9810486740        3.7336125463        9.1645761169
  C        12.6994408434        2.6655266447       10.8667767990
  C         7.6996451878        6.6561497182       12.4728944829
  C        10.4703867174        4.8906858741        5.4776511736
  H        10.0075342920        6.6159315156        6.5616834634
  C        10.9919045903        3.1010273620        4.4409046620
  H        13.6089897541        3.0478216883       10.4972483388
  H        12.7280227513        1.5613918865       10.7198988797
  C        12.7361693124        2.9640114093       12.3482883965
  C         7.7373417483        8.0213089909       12.6867982426
  C         7.3053874792        5.8458138297       13.6712509347
  C        10.8888323729        5.5360067334        4.1596824217
  C        11.1465974058        4.1158959333        3.5212102693
  S        11.1767199777        1.4619322581        3.7223813143
  H        13.8250588548        3.1310257742       12.5418547877
  H        12.3019223021        3.9405829782       12.6280572244
  C        12.1094874285        1.7665417067       13.1298483141
  N         8.0740169236        8.9953677515       11.7173546137
  C         7.4345600769        8.5922918115       13.9126756772
  C         6.9331760650        6.3847269423       14.8897714525
  H         7.2390972444        4.7593754744       13.5867531116
  C        12.1709648721        6.4075101138        4.1538082155
  C         9.6760881714        6.1366846275        3.5052308557
  C        11.4396335967        3.5773529350        2.2203285915
  C        11.4159750718        2.1950071752        2.1862620020
  H        12.6894372517        0.8829661898       13.0064441139
  H        11.1415910602        1.5628119788       12.6579135132
  C        11.8051153287        2.0912322007       14.5420560804
  S         8.0602568778       10.4690673034       12.3971898096
  N         7.7365642871        9.9683948876       13.9195031154
  C         7.0076669871        7.8733262656       15.0808783911
  H         6.6138173543        5.7511844178       15.6993273967
  H        12.0324861493        7.3035775727        4.7555341305
  H        12.3313435087        6.7672088122        3.0858960408
  C        13.4139151817        5.6916702139        4.5950043635
  H         9.2716896259        6.9472620371        4.1245035833
  H        10.0674524455        6.5302396887        2.6440842794
  C         8.4982664754        5.1898475878        3.2379472209
  H        11.7213992225        4.2723445073        1.4281766388
  C        11.7321942529        1.3426651778        0.9940639620
  H        11.3328055448        3.1173920166       14.5720421082
  H        10.9930648504        1.5015034358       15.0021527783
  C        13.0149017484        2.2250497085       15.4557164118
  C         6.7649697080        8.6400972851       16.2596890340
  H        13.0587839137        5.0757734853        5.3886690371
  H        13.7233726357        5.0330563386        3.8124340802
  C        14.5726045484        6.5875879366        5.0930107443
  H         8.0647076976        4.7659342947        4.1463596717
  H         8.7884682396        4.3252811142        2.6023310514
  C         7.4118872773        5.9426454304        2.5054616685
  C        11.8481069013       -0.0810928839        0.8941214939
  C        11.8208432555        2.0927699736       -0.2642911213
  H        13.7774878231        2.7966686087       14.9876802861
  H        13.5905888913        1.3682227967       15.4867268194
  C        12.8315010741        2.6931198050       16.9414335031
  H         6.8620539358        9.6936919577       16.1074995978
  C         6.4997772930        8.3831260093       17.6141298078
  H        14.2965287722        7.1955131796        5.9123808719
  H        14.9096763268        7.1559624752        4.2598497650
  C        15.5960184571        5.5448310779        5.5913146015
  H         7.2320102791        6.9285977151        2.9038088615
  H         7.8697827678        6.1372947706        1.6224307806
  C         6.1171662018        5.1023545253        2.3070551868
  N        11.5627227633       -0.9705807405        1.9368535455
  C        12.2278915316       -0.7081952628       -0.2900145800
  C        12.2751335513        1.4850438935       -1.4431873803
  H        11.6834740674        3.1585437451       -0.2919456163
  H        12.0462333159        2.1936102524       17.4393040576
  H        12.5354986579        3.7908000762       16.8919571533
  H        13.6868941788        2.4326627655       17.6087535548
  S         6.2032539947        6.8548144977       18.2388750638
  C         6.3469221130        9.5266979189       18.5337046222
  H        15.0459713064        4.7108098410        6.1019440751
  H        16.0074417594        5.0951074348        4.7459988559
  C        16.7048727093        6.2118009305        6.4459602297
  H         5.9910657423        4.3345883411        3.0845785504
  H         6.2486681872        4.5265194770        1.3123502146
  C         4.8626844992        5.9902702970        2.1663698154
  S        11.7021426665       -2.4757480916        1.3311552869
  N        12.2673297121       -2.0713539302       -0.1672651577
  C        12.4644629291        0.0268398141       -1.4976953430
  H        12.2612495521        2.0645963616       -2.3615431032
  C         6.0541251545        7.6445142224       19.8520667603
  N         6.0524673426        9.0546943073       19.8032064895
  O         6.3400830442       10.7371532375       18.1740502895
  H        17.1273633763        7.1179386748        6.0033305839
  H        16.2052458505        6.4537091607        7.4212707273
  C        17.9066729109        5.2154927721        6.7057217420
  H         3.9455505136        5.3400985526        2.0320379060
  H         4.5240640276        6.5276369023        3.0285593502
  C         4.8830725867        6.8764286511        0.9742012342
  C        12.7574775073       -0.6984832432       -2.6797067666
  S         5.4032691924        6.8470377625       21.3637335222
  C         5.8782955469        9.8496190773       20.9822714306
  H        17.5075236285        4.3737348301        7.2849765082
  H        18.2807105101        4.8623946232        5.7007026373
  C        19.0450722135        5.8513105281        7.5573275078
  H         4.5399094080        6.3038112466        0.1276097072
  H         5.8955252441        7.3596884227        0.7938837985
  C         3.8756009764        8.0549612123        1.1363713924
  H        12.5709459713       -1.7187827014       -2.6088139154
  C        13.1713825739       -0.3145724175       -3.9472041576
  H         5.0297890408        9.3907414881       21.5230148605
  H         5.6128899359       10.8599704424       20.7440781180
  C         7.1560955407        9.8125400571       21.8518766814
  H        19.1631593833        5.3886142977        8.5453049641
  H        18.8143486545        6.8565199773        7.8798855609
  C        20.4234625622        5.7263497026        6.8747770432
  H         3.6558040818        8.4494239888        0.1370172605
  H         2.9259313136        7.7006280779        1.4993863646
  C         4.3193572962        9.2957174805        1.8949471092
  S        13.7766064700        1.2377896257       -4.2856837975
  C        13.3013799942       -1.4107689085       -4.9561529097
  H         7.8955764973       10.2637759167       21.1539353056
  H         7.6404403677        8.8537522441       22.1013469613
  H         7.1835193957       10.5144248505       22.7061670203
  H        20.2592487135        6.1736204687        5.9168002733
  H        21.0958408444        6.4065199769        7.4058830763
  H        20.8294350589        4.7458475181        6.9444481683
  H         3.8294747072       10.1560999242        1.4207439978
  H         4.1472635936        9.2294328523        2.9782535736
  H         5.4446065316        9.4358943775        1.7535737385
  C        14.1514063641        0.4977226183       -5.9104230580
  N        13.8949152095       -0.8394996892       -6.0034566459
  O        12.9949272977       -2.5668963617       -4.8471421010
  S        14.9425970956        1.3820694583       -7.2784693144
  C        14.0708231724       -1.6908016962       -7.1243350683
  H        13.9691416418       -2.7051503297       -6.8807778713
  H        15.0967996773       -1.6337681051       -7.4679894632
  C        12.9798432673       -1.4518278421       -8.1893981030
  H        11.9578969689       -1.3248077406       -7.8490802289
  H        12.9915556027       -2.1982017416       -8.9475165838
  H        13.3222820527       -0.5680534818       -8.7519445237
  H        -3.6735005381       14.5062282631       15.8111961898
  C        -3.3181773539       13.5096554150       15.9375684050
  H        -4.1864768016       12.8528378775       16.1633338531
  C        -2.2698335595       13.3545150045       17.0536711004
  C        -2.6100221107       13.0685742794       14.6311328761
  C        -2.7632847396       13.6250099041       18.4453886618
  H        -1.8112821581       12.3853809864       16.9535026732
  H        -1.3284324620       13.9458827023       16.7438982798
  H        -1.9616374485       13.7867996256       14.1566691711
  H        -1.9662818142       12.1746727212       14.8624081981
  H        -3.3264986063       12.7958009193       13.8514859691
  C        -1.7640057375       13.2348062409       19.5874716041
  H        -3.7031548481       13.1409556357       18.5252298914
  H        -2.9537986024       14.7148393829       18.6044677124
  C        -2.4623299292       13.2321318891       20.9758590855
  H        -1.6120221678       12.2239488116       19.4593342865
  H        -0.7460289003       13.7017898074       19.5894515912
  C        -1.5271129574       12.8889218420       22.0835700837
  H        -3.3096646912       12.5039478551       21.1422407596
  H        -2.8864645954       14.2334208057       21.1828430148
  C        -0.4461036696       13.8642702760       22.4168411112
  H        -1.9978888661       12.9399440103       23.0620341217
  H        -1.1339802749       11.8845023872       21.8899285049
  C         0.8676936282       13.2738129275       23.0772957877
  H        -0.0763371886       14.4954078864       21.6132617278
  H        -0.8677958179       14.5368041812       23.1718507270
  C         1.2383724551       11.9004772963       22.4187745264
  C         0.5282219375       12.5331185759       24.3379653127
  C         2.0636651694       14.1610839284       23.1183641797
  C         1.1168823361       10.8161511925       23.2619228866
  C         1.7866262326       11.5162075905       21.1695646971
  C         0.5363785037       11.1866295290       24.4380886420
  C         0.0361359237       13.1612621080       25.5282547909
  H         2.1964395039       14.6724729022       22.1823050361
  H         1.9444895798       14.9566303389       23.8332125577
  C         3.3095153881       13.6030237747       23.7823018657
  S         1.5313309136        9.2550609694       22.5692943350
  C         1.9075792539       10.1106365686       21.0970274923
  H         2.0710575315       12.2677828210       20.4231715826
  C         0.1069995076       10.5153900161       25.5614092873
  H        -0.0133541899       14.2323196526       25.4477671327
  C        -0.4361686686       12.4920501425       26.5839945281
  H         3.7749045104       12.9615284399       23.0098649389
  H         3.1426979774       12.9821446987       24.7010805512
  C         4.3988785925       14.4790240735       24.2889464248
  C         2.5501331184        9.3866672706       19.9226578728
  C        -0.3855291654       11.1220895515       26.6922606680
  H         0.2965749678        9.4749359859       25.6858378283
  C        -0.8574831236       12.8658531293       27.8368677816
  H         5.1486623811       13.8608083809       24.7600331205
  H         3.9382690947       15.1233458722       25.0277917111
  C         5.0426589987       15.4518396025       23.2337920093
  C         2.4967534145        7.9826466441       19.6986071872
  C         3.0233934512       10.2387923714       18.7907662591
  C        -0.8272921009       10.3644109967       27.9215244199
  C        -1.1046740156       11.7395775999       28.6228731877
  S        -1.0631901223       14.3609250667       28.6184218132
  H         5.4562332038       16.4099890914       23.6179877466
  H         4.3398966111       15.6511082218       22.4255598841
  C         6.2238787784       14.6771312097       22.4956532097
  N         2.2187571028        7.0145578946       20.6361682061
  C         2.7984439319        7.4059808210       18.4426986036
  C         3.1252674743        9.6427168433       17.5070101637
  H         3.1171354172       11.3565232366       18.9583722098
  C         0.2948359711        9.5742800168       28.6612534244
  C        -2.1597727036        9.6771877988       27.6806459662
  C        -1.4436590773       12.1433253998       29.9252752472
  C        -1.4440926151       13.4647043195       30.0524147022
  H         7.1366916455       15.2305557555       22.7915828535
  H         6.4706738471       13.6617769826       22.9418203942
  C         6.0812454137       14.5210794516       20.9971728621
  S         2.3103943829        5.5582772265       19.9768785317
  N         2.6888780883        6.0167224403       18.4354071112
  C         3.0775901483        8.1908712386       17.3021107131
  H         3.2785039914       10.3055374515       16.6601139848
  H         0.7577349206        8.9339475284       27.9285421611
  H        -0.1144049581        8.9213370127       29.4164571963
  C         1.3859183560       10.4671482130       29.1864867793
  H        -1.9794038640        9.1204180247       26.7661232857
  H        -2.3660925041        8.9770074139       28.5204925856
  C        -3.3540559551       10.5751776437       27.4151647380
  H        -1.5736569207       11.3234494192       30.5677723739
  C        -1.7046786164       14.2421120261       31.3583812309
  H         6.0330837142       15.4989756778       20.6387147121
  H         5.1215027494       14.0366437701       20.6626706987
  C         7.3516258331       13.8164849304       20.5245735511
  C         3.2576250976        7.5901933334       16.0096875538
  H         1.8151123748       11.0305591882       28.3431107403
  H         1.1266631442       11.1438516559       30.0489737824
  C         2.6311833210        9.7506426820       29.5542369058
  H        -3.1157557951       11.2637309662       26.5945160968
  H        -3.5997560829       11.0738532062       28.3036914261
  C        -4.5744831690        9.6960392436       27.0653317347
  C        -1.7278795544       15.6695909400       31.4491463266
  C        -1.7901561305       13.5490497812       32.6734623303
  H         8.2533669119       14.3787955617       20.8084409290
  H         7.5068643870       12.8970699986       20.9569253876
  C         7.2873978435       13.7411571554       18.9683939580
  H         3.1258568649        6.4701489396       16.0260871332
  C         3.6293075875        7.9486704547       14.7897133357
  H         3.0312488211        9.2750846200       28.6956757783
  H         2.4094022499        8.8949453054       30.1562514676
  C         3.6391032613       10.6769234232       30.1534256537
  H        -4.3736828778        9.2696174215       26.1292361253
  H        -4.7235825745        8.9141172438       27.8197959355
  C        -5.7854682106       10.5224070612       26.8710256874
  N        -1.5262359970       16.5785599381       30.4138618823
  C        -2.0831730094       16.3383915710       32.5967986180
  C        -2.2134678698       14.1796896373       33.8223134785
  H        -1.5905624310       12.4631098386       32.6370960992
  H         8.0199331305       13.0394947833       18.5360472336
  H         6.3104995877       13.6207544085       18.5831840424
  H         7.5077602357       14.7310061574       18.6836127656
  S         3.9063368275        9.6028690145       14.2814446333
  C         3.7491757543        6.9435835779       13.6915554065
  H         3.9389493992       11.4265122061       29.3922625819
  H         3.2508819601       11.1857361031       31.0363430878
  C         4.9778682318        9.8944179676       30.4204990424
  H        -5.5796413454       11.4073066812       27.4050922031
  H        -6.5507560832       10.1076573620       27.4510664024
  C        -6.1860506106       10.7376362626       25.4162345878
  S        -1.7043668521       18.1196412019       30.9654910992
  N        -2.2087240258       17.7131085237       32.4584581907
  C        -2.4326576430       15.6061832269       33.8050477790
  H        -2.1830570721       13.6259926531       34.7252539876
  C         4.3053682402        8.9155031924       12.7272767913
  N         4.1347663184        7.5440442708       12.5710117435
  O         3.6147838244        5.7126857318       13.8819654433
  H         5.7091859217       10.6457962565       30.6419106685
  H         5.3295841619        9.4012534507       29.4969381395
  C         5.0655159628        8.9126564256       31.5748762427
  H        -5.6748331168       11.6088121853       24.9462607114
  H        -5.9054759575        9.8917423131       24.8059601767
  C        -7.6638698405       11.0853836336       25.2498258985
  C        -2.7926448186       16.3185481301       34.9782926758
  S         4.7671265646        9.9112492350       11.3784912161
  C         4.2202967193        6.8546795318       11.3044465095
  H         5.5585446098        9.3697617749       32.4373953036
  H         3.9972176958        8.6928802469       31.8883384627
  C         5.8328360398        7.6307994727       31.1695717141
  H        -7.8213096158       11.3759098122       24.2359996368
  H        -7.9156519543       11.9097051900       25.8437958494
  C        -8.5614090693        9.9057774181       25.4766148628
  H        -2.5713513389       17.3814655139       34.8703689304
  C        -3.1052897241       15.9320524037       36.2904462705
  H         5.0009103830        7.3407050685       10.7516436886
  H         4.6556337926        5.7910680193       11.2995209122
  C         2.8895507603        6.9027975884       10.4650366146
  H         6.7934205054        7.8327286968       30.7409486760
  H         5.3503894504        7.0516318650       30.3738600703
  C         6.1422978634        6.7755850460       32.3756955053
  H        -8.7830230593        9.4507430790       24.5353192625
  H        -8.0719711876        9.2419110102       26.1995271679
  C        -9.9241087308       10.3003656455       25.9344858089
  S        -3.4588316579       14.3522462290       36.8562394317
  C        -3.2268342470       16.9660072269       37.3540548937
  H         2.2077525519        6.1787174267       10.9418043667
  H         2.5120130203        7.9973147985       10.4368554486
  H         3.1192530471        6.6555326333        9.4009910841
  H         6.7489457659        6.0199755100       31.9438826258
  H         5.2365402063        6.3503575604       32.8625989401
  H         6.7006628246        7.3977264302       33.1864844340
  H       -10.5065730378       10.5448544484       25.1359750825
  H        -9.8659712096       10.8973628650       26.8170310855
  H       -10.3504940770        9.5163645744       26.4705823402
  C        -3.9612853541       15.0403134052       38.3412630776
  N        -3.7881176090       16.3631405549       38.3987273000
  O        -3.2270527109       18.1302971949       37.0851319272
  S        -4.4945686914       14.1807785989       39.7457522833
  C        -4.2097737470       17.1507248515       39.5604352482
  H        -4.5228994004       18.2004582567       39.2610817194
  H        -5.0545508495       16.7611184569       40.1179058836
  C        -3.0145819581       17.2560367693       40.5137239927
  H        -2.8981609758       16.3433302195       41.0575130326
  H        -2.0423554346       17.3553339232       40.0220999950
  H        -3.0755342633       18.1136972286       41.1423711393
