352
i=
  H         3.1669624329        4.2164854895       11.9197367073
  C         2.8241605983        3.2334492177       12.1515511228
  H         1.8744005057        3.4513404591       12.6325745333
  C         2.6396697326        2.5479100489       10.8198176142
  C         3.7398098540        2.4670669667       13.1177098799
  C         3.8197715552        2.7498935854        9.9183675716
  H         1.7563895586        2.9877558674       10.4531306329
  H         2.3651071993        1.5047323108       10.8503923040
  H         4.5648325039        2.0933665228       12.5707330614
  H         3.2112766201        1.8057883227       13.7824793068
  H         4.1229283458        3.1969987280       13.7656341259
  C         4.5426449403        1.4304966466        9.5932234049
  H         3.4934416526        3.1090693780        8.9339768031
  H         4.5139384638        3.5487487960       10.2720542316
  C         5.4093549039        1.5945648344        8.2753792322
  H         3.8674072679        0.6081496291        9.5580326758
  H         5.2437874479        1.1906183863       10.3452227356
  C         6.6187191529        2.5045038142        8.3947518930
  H         4.7218175777        1.9276082991        7.4782180710
  H         5.6775742619        0.6387104585        7.9053940822
  C         7.7478355604        1.7568743253        9.1681277328
  H         6.8002809305        2.7885891404        7.4067299568
  H         6.3312945152        3.4052900338        8.9438387740
  C         9.0783353789        2.5522726727        9.3631088488
  H         7.9128799682        0.7870352803        8.7710304585
  H         7.3368950214        1.4932140056       10.1640937481
  C         8.6809620331        3.9682769990        9.9792571732
  C         9.5086162167        3.2638354710        8.1202236221
  C        10.2378326621        1.8324481054       10.0626736507
  C         8.8010040198        5.0201136809        9.0625688452
  C         8.2822329412        4.4445816336       11.2167491888
  C         9.3942308283        4.5674966213        7.9202543396
  C        10.0781436262        2.5547370231        7.0131710224
  H         9.8955686755        1.3319933328       11.0397331911
  H        10.4324838143        0.9602010479        9.4527914281
  C        11.5021487726        2.6384119444       10.3490029174
  S         8.2938804008        6.5875210460        9.5890342587
  C         8.0631260922        5.8221810075       11.1741217115
  H         8.1894272653        3.8868569176       12.0919947628
  C         9.7949087206        5.1146534785        6.7310580540
  H        10.1810619166        1.4783689944        7.0587468215
  C        10.5355936184        3.1648072775        5.8574782592
  H        11.1825471854        3.6626596691       10.5477160141
  H        12.0751044403        2.6964491639        9.3873140219
  C        12.3931136861        2.0742060137       11.3764413034
  C         7.4098548737        6.6381250582       12.2887586515
  C        10.3627109231        4.4780561516        5.6531393859
  H         9.6487144107        6.1477637876        6.7120807259
  C        10.9804562799        2.7719945720        4.6204240315
  H        13.1624679665        2.8496447319       11.4798210280
  H        12.8569626155        1.2082091336       10.9917859476
  C        11.7235863724        2.1531728638       12.8001287540
  C         7.6280812827        8.0200332707       12.5949644795
  C         6.8589042792        5.8415579797       13.3882307337
  C        10.7296832798        5.1269594451        4.4201088819
  C        11.0690059079        3.8128099212        3.7441059510
  S        11.2023397137        1.2521969557        3.8752117027
  H        11.0026606161        2.9912315844       12.8273319354
  H        11.0471510267        1.3767161832       13.0555626051
  C        12.7834654729        2.1762685610       13.8350571641
  N         8.2281589248        8.9640381128       11.7742045297
  C         7.3074195960        8.5772972173       13.8362605082
  C         6.5761444974        6.3524868167       14.6229181075
  H         6.6414213123        4.7727882686       13.2214409075
  C        12.0024273841        6.0458220835        4.6256307253
  C         9.4904121442        5.8258071873        3.7908623404
  C        11.3593010175        3.3994863109        2.4383088493
  C        11.4952199992        2.0313162097        2.3412636704
  H        13.4700815137        3.0119777832       13.7616731611
  H        13.3769828865        1.2597659770       13.7414982886
  C        12.0906771241        2.1390680079       15.2536756258
  S         8.1453171532       10.3927379089       12.5052601974
  N         7.5025433820        9.9604651180       13.8730708291
  C         6.7392179297        7.7959909668       14.9227395335
  H         6.1727951828        5.7014942379       15.3599144066
  H        11.7811619201        6.9704394033        5.1747080931
  H        12.2013703068        6.2877032297        3.5362787811
  C        13.2855220250        5.4273747519        5.2273980393
  H         9.1306123851        6.7142584273        4.3224171700
  H         9.7986305006        6.2159208546        2.8124416451
  C         8.3855284479        4.8894162520        3.4432340631
  H        11.4934675907        4.1714499754        1.7269675497
  C        11.8589819077        1.2173074084        1.1447970207
  H        11.2882440511        2.8742969846       15.5037137364
  H        11.4719072447        1.2242167983       15.2997173881
  C        13.1697895195        2.2109506956       16.2648689997
  C         6.5177867191        8.5026533051       16.1780951868
  H        13.1384373759        5.1705358128        6.2471264517
  H        13.5299549034        4.4943328205        4.7789714937
  C        14.5095630315        6.4232045754        5.0936389677
  H         8.1563359012        4.2644792022        4.3279309033
  H         8.6744463901        4.3175921561        2.5665402449
  C         7.1435416356        5.6805708475        3.0291977619
  C        11.9796623304       -0.1811694764        1.0636069502
  C        12.0345870736        1.9713318199       -0.1273991706
  H        14.1272329690        2.4386675914       15.7766816963
  H        13.3412956070        1.2134546912       16.5839024633
  C        12.8883058378        3.0623294768       17.4713542343
  H         6.7365966837        9.5936775170       16.1489442564
  C         6.1359755944        8.0616848726       17.4354868928
  H        14.0654140015        7.3556041085        5.3091289065
  H        14.8628995277        6.2911240341        4.0424102742
  C        15.6836914782        6.1522613212        6.1105201284
  H         6.3311066611        5.4450911863        3.6464526754
  H         7.2960104671        6.7837745526        3.0324913204
  C         6.7468377100        5.3233146854        1.5437333767
  N        11.8078624877       -1.0533745408        2.1083559753
  C        12.2950494661       -0.8206972757       -0.1152679075
  C        12.2872704089        1.3234015288       -1.3366993515
  H        11.8152901751        3.0638478068       -0.1264090602
  H        13.6992710019        3.7908465544       17.5762978256
  H        12.8877955946        2.4835290765       18.3954049311
  H        11.8880899939        3.5155369137       17.5995890344
  S         5.8208599207        6.4631367245       17.8414328034
  C         6.0348341014        8.9836517057       18.4927258895
  H        16.4220409425        7.0111664144        6.0705074070
  H        15.3996709443        6.0664661984        7.1452652234
  C        16.5446494005        4.9490221289        5.6644359306
  H         6.7156207517        4.2363250389        1.5300928371
  H         7.4422011894        5.7324599702        0.8365902126
  C         5.3613690271        5.8611335730        1.2375707011
  S        12.0649492044       -2.5804958012        1.5906414917
  N        12.3788228388       -2.2049116082       -0.0013725753
  C        12.4154475191       -0.1215703202       -1.3585013487
  H        12.3380256917        1.9627529274       -2.1546689011
  C         5.5161239420        7.0395360145       19.4275486875
  N         5.7345378329        8.3243295412       19.6305755777
  O         6.3742823121       10.1441242024       18.3754101399
  H        15.9652971281        4.1005606255        5.2835301126
  H        17.1651244159        5.3010024143        4.8452265755
  C        17.3485393746        4.4525334321        6.8953285454
  H         4.9665410159        5.3855761673        0.2887432311
  H         4.6147497350        5.5751434509        1.9636704039
  C         5.3085168985        7.3938453447        1.0269620840
  C        12.7155913905       -0.9163394164       -2.4867416363
  S         5.2013208402        5.9949270384       20.8686910841
  C         5.5281195377        9.0134791164       20.9594387060
  H        16.6818855826        4.3151990502        7.7541542461
  H        17.6919839690        3.5143059830        6.5667565482
  C        18.4269473007        5.4345540596        7.2830762674
  H         5.0407362003        7.6094346356        0.0263067982
  H         6.2476090402        7.8759577793        1.1864311486
  C         4.1254093830        7.8819226274        1.9060791106
  H        12.7041907147       -1.9991987507       -2.3307882725
  C        13.1684214601       -0.6628338649       -3.7597393423
  H         4.8515757508        8.4675503911       21.6558222500
  H         5.0803992817        9.9756951523       20.6974786380
  C         6.9242583920        9.4253643869       21.4405466887
  H        18.7872022133        5.2282829885        8.2935748770
  H        18.1103332900        6.4891612081        7.3551970782
  C        19.5454048541        5.4550833130        6.3024207197
  H         3.6910908237        8.7083811992        1.3735698593
  H         3.3339129890        7.1416894628        2.1660062639
  C         4.7129117019        8.2873979820        3.2690322208
  S        13.5955453372        0.8856310264       -4.3782092071
  C        13.2579084366       -1.6917251909       -4.7417375242
  H         7.7293744150        9.5267719060       20.6617873583
  H         7.1857417603        8.8805661348       22.3312650300
  H         6.8146493449       10.3948339910       21.8800374723
  H        19.1718449451        6.2478016150        5.5568786846
  H        20.5217054755        5.7094943232        6.6456502087
  H        19.5539961428        4.4814478901        5.8133180640
  H         4.7536543226        7.4215879217        3.9036245472
  H         5.7369384628        8.6679166738        3.1717484774
  H         4.1482121999        9.1037237946        3.7610406143
  C        13.9416916108        0.0292008845       -5.9121890643
  N        13.8651314186       -1.2852022681       -5.8556797195
  O        12.9206335549       -2.8606987801       -4.5345224666
  S        14.6226526864        0.8653150543       -7.3746841988
  C        14.1153299671       -2.2664567690       -6.9630292272
  H        14.2929651691       -3.2747206291       -6.5338915331
  H        14.8546421313       -1.8917286076       -7.7215954460
  C        12.8322340842       -2.4895556306       -7.7924243130
  H        12.6566583845       -1.6185148112       -8.5541988460
  H        11.9268239086       -2.6782170897       -7.1699866009
  H        12.9709971041       -3.3992050297       -8.3759956461
  H        -1.1761905429       13.6929825692       16.8501232426
  C        -1.9516044980       14.3910578920       16.5504798262
  H        -1.4065624628       15.1597307721       16.0853506281
  C        -2.6402295307       15.0944707341       17.6740137289
  C        -2.9822518936       13.6801942534       15.6170326082
  C        -3.1931300262       14.1055166361       18.7242005082
  H        -1.9222633116       15.8523059019       18.0309770374
  H        -3.4245125216       15.6397101472       17.2138715745
  H        -2.9698628752       14.2202714795       14.6844077293
  H        -2.6749279296       12.6769255756       15.3851040781
  H        -3.9386989907       13.6355121370       16.0383423671
  C        -2.1490757037       13.5782573001       19.7670727164
  H        -3.6239191673       13.1745496661       18.2666152572
  H        -4.0483464089       14.4915635070       19.2350945201
  C        -2.7904728693       13.5959930468       21.1919970870
  H        -2.0180499101       12.5982964414       19.4278682910
  H        -1.2206436840       14.0734357287       19.7983094995
  C        -1.8276878570       13.0814889208       22.2153204752
  H        -3.6892180902       12.9779763342       21.1964499681
  H        -3.1053300299       14.5416047529       21.5204354839
  C        -0.6766964396       13.9662670772       22.6394278005
  H        -2.3440320497       12.8183613681       23.1230108830
  H        -1.4456654582       12.1352553992       21.7421079470
  C         0.5753625506       13.3693248262       23.3265533202
  H        -0.3273411614       14.5378489861       21.7417918305
  H        -1.1408768943       14.6269429342       23.3151559109
  C         0.9651055231       12.1082793052       22.6281896367
  C         0.0854615399       12.6570059511       24.4962442653
  C         1.8132356743       14.2453590714       23.6484580300
  C         0.7478327110       10.9830535441       23.3833248172
  C         1.5555141968       11.7165725757       21.4465943724
  C         0.2241993164       11.2812252649       24.5986441448
  C        -0.3234398357       13.2421189187       25.7174376115
  H         1.9061580240       14.9226463975       22.8173885615
  H         1.7091438818       14.9079112031       24.5338749819
  C         3.1829852526       13.4695700886       23.7882034068
  S         1.4008851182        9.4980081845       22.7794378863
  C         1.7361545998       10.3869261232       21.3336784767
  H         1.7412856310       12.4236328133       20.6579866537
  C        -0.1584518375       10.6232420075       25.7128258966
  H        -0.1959197065       14.2910187297       25.8233287460
  C        -0.6776231694       12.5607739167       26.8879013473
  H         3.4220811848       12.9852824621       22.8765034793
  H         3.1244126986       12.6442054054       24.5035276619
  C         4.4332065889       14.2475902132       24.2595835575
  C         2.1936638673        9.6644943879       20.0022221976
  C        -0.5134192593       11.2149778618       26.9075746061
  H        -0.1585196512        9.5625071239       25.6885605332
  C        -1.0686216171       12.9000743010       28.1332050938
  H         5.0689603608       13.6393853784       24.8519695164
  H         4.0989341875       14.9912375498       24.9574686462
  C         5.1791943431       14.8465715402       23.0883706447
  C         2.2024021545        8.2575146721       19.7572361400
  C         2.7328669545       10.5752470422       18.9066290187
  C        -1.0086535219       10.4291233740       28.1096420096
  C        -1.2464427179       11.7600400980       28.8969986350
  S        -1.2871782492       14.3209808322       29.0097291523
  H         5.9706264481       15.4746331382       23.3454903820
  H         4.5034795494       15.3583009135       22.4382671727
  C         5.7856318669       13.6999306819       22.2599820343
  N         2.0217216680        7.2957265339       20.7338216548
  C         2.4815644608        7.7498254037       18.5379755676
  C         3.0180835924        9.9867167162       17.6203967772
  H         2.6929551405       11.5997376036       18.9966624998
  C         0.1331596274        9.5291248678       28.6423055918
  C        -2.2240039556        9.5204428982       27.9191938777
  C        -1.5999160052       12.1178176590       30.2231327029
  C        -1.6104572206       13.4537481413       30.4680769754
  H         6.8590008971       13.8208292553       22.5010856509
  H         5.4522032385       12.7325837231       22.6071547191
  C         5.4746039668       13.9578348028       20.7870932879
  S         2.0346775141        5.8250626189       19.9525373582
  N         2.4779994269        6.3456484707       18.4943196697
  C         2.8623202411        8.5633674910       17.4260681475
  H         3.1361054090       10.7625419676       16.8714615332
  H         0.2509999835        8.6683063451       27.9847948997
  H        -0.2661128062        8.9878160782       29.4603783834
  C         1.5301967882       10.1404424564       28.8018306628
  H        -2.0919669745        8.8922595097       27.0020704135
  H        -2.2590913502        8.8205800103       28.7886844936
  C        -3.5032174676       10.3164078004       27.6954296268
  H        -1.6254518008       11.3336546314       30.9604389112
  C        -1.8425422254       14.1416945524       31.7956754862
  H         5.5410444335       15.0043841159       20.6507907641
  H         4.4680813712       13.6938164611       20.6288355211
  C         6.3918920621       13.1621461122       19.8463404891
  C         3.0168296417        7.9552563242       16.1575242443
  H         1.8386266933       10.3620388665       27.8129466388
  H         1.5583455054       11.0049732509       29.4618737710
  C         2.6312716314        9.1909951432       29.2382532367
  H        -3.3536388383       10.9640803422       26.8637613021
  H        -3.9411094350       10.8358151378       28.5743326015
  C        -4.5921967292        9.3127330643       27.3245857230
  C        -1.8327263759       15.5496126370       31.9857305287
  C        -2.0170969086       13.2705725109       33.0080057463
  H         7.4329635741       13.2152389344       20.1657869532
  H         6.1147370335       12.1282960515       19.8832748138
  C         6.2726208049       13.6984629796       18.4385704025
  H         2.4206628514        7.0684550419       16.0977514765
  C         3.3781193947        8.4237050800       14.8819320216
  H         2.7935888301        8.5020120745       28.4573624572
  H         2.2433570388        8.5732476036       30.0478641124
  C         3.9678770967        9.9581239563       29.5925736185
  H        -4.1678250696        8.6649624072       26.5930127476
  H        -4.6608727967        8.5247743972       28.0886173336
  C        -5.9896764566        9.9622259824       26.9779279248
  N        -1.5069968633       16.5770183077       31.0027432200
  C        -2.2655216565       16.1517329857       33.1253670439
  C        -2.4093213235       13.9147281036       34.1760759754
  H        -1.8036930468       12.2548068451       32.9862775815
  H         6.6160403146       14.6678537486       18.3312672123
  H         6.8553093181       13.0183879937       17.7316864285
  H         5.2221002344       13.6260084548       18.2784085906
  S         3.7970338329       10.0335064009       14.4849332339
  C         3.5228600444        7.4248221328       13.7801151954
  H         4.1094848395       10.8299227090       28.9172809741
  H         3.8976270278       10.3781792607       30.6075693829
  C         5.1550475323        8.9952755844       29.4938615440
  H        -6.0003702355       10.8920993762       27.5937046288
  H        -6.7597622056        9.1524185076       27.1765930530
  C        -6.1251464631       10.2961446316       25.5612522130
  S        -1.8324468904       18.0331399922       31.5837829085
  N        -2.2760864892       17.5002573045       33.0762417644
  C        -2.5089810062       15.4096275439       34.2764431745
  H        -2.5473538824       13.2249976852       34.9168848479
  C         4.0164584925        9.3982805711       12.8119356681
  N         3.9237510821        8.1027962091       12.6660063735
  O         3.3445394901        6.2009204376       13.9356226650
  H         6.0477610338        9.6586696090       29.3436725236
  H         5.0112552244        8.3721831227       28.6310880737
  C         5.2554372850        8.0535249563       30.6786542941
  H        -5.1551178236       10.7432001318       25.2374077552
  H        -6.2254457039        9.4257807796       24.9300935956
  C        -7.2584086172       11.1100190447       25.1812949922
  C        -2.9355080104       16.0453660664       35.4523819830
  S         4.6131938836       10.3640666701       11.4502850126
  C         4.1302592605        7.3556623929       11.4747306233
  H         5.5655008745        8.5925797445       31.6124495522
  H         4.3108034472        7.5641449801       30.7002018894
  C         6.4129719430        7.1174845176       30.4034882236
  H        -7.1750861293       11.4029785840       24.1141345187
  H        -7.3229301278       12.0809236055       25.6907280764
  C        -8.6024045877       10.4232026524       25.3377973483
  H        -2.4724076409       17.0197553201       35.5547231567
  C        -3.5888096625       15.6015708478       36.6333432365
  H         4.7862341157        7.7435692609       10.7298121698
  H         4.5189752075        6.3457923467       11.6594730872
  C         2.8947946792        7.3279438586       10.7082127064
  H         7.3396943451        7.6014492209       30.2561033301
  H         6.1298527483        6.5874756542       29.5130875305
  C         6.4960116818        6.0160513354       31.5113417612
  H        -9.0728582262       10.4153213680       24.3864154273
  H        -8.4805155621        9.4271633243       25.7876028228
  C        -9.6323123919       11.1743806201       26.2248671370
  S        -3.9897882120       13.9564469137       37.0189224991
  C        -3.7355992388       16.5869587082       37.7261438188
  H         2.4676079169        8.2884288308       10.3074846278
  H         2.9208844594        6.8024170171        9.8051886824
  H         2.1404734141        6.7308192214       11.2738642169
  H         6.8312681032        6.2738044932       32.4985549264
  H         7.2750068815        5.3852410014       31.1185395026
  H         5.6021424213        5.3070440495       31.5336621298
  H        -9.5004972929       12.2306662103       26.5339253905
  H        -9.6779444354       10.6559193664       27.1478933224
  H       -10.5879683128       10.9832895560       25.7661417105
  C        -4.5021134187       14.6152163385       38.5894497260
  N        -4.3730079920       15.9724532776       38.7313990506
  O        -3.4604253841       17.7438654730       37.6622995763
  S        -5.1374873022       13.6558948636       39.8900076910
  C        -4.4865314319       16.6583406182       39.9583039532
  H        -4.6556984343       17.6802801090       39.7655320272
  H        -5.3409179722       16.3301460692       40.5725941978
  C        -3.2228853834       16.5061760700       40.7745306524
  H        -2.5343290006       17.3561922247       40.7593467698
  H        -3.5203919637       16.4992567724       41.8274199495
  H        -2.7094676592       15.5299680174       40.5278659487
