352
i=
  H         2.9699953219        4.2669237928       12.4759111346
  C         2.7657906479        3.2094060538       12.5934749879
  H         1.7944664805        3.2134345920       12.9912171172
  C         2.6485876312        2.6604804273       11.1932556099
  C         3.6483545072        2.3833709719       13.5024707262
  C         3.9657312869        2.7489391750       10.4180903336
  H         2.1494403789        3.4411725013       10.6046600853
  H         2.1137084583        1.7161816694       11.1134156533
  H         4.6124871392        2.8028744122       13.6354265318
  H         3.6804008483        1.3996167445       13.1123840652
  H         3.2035947123        2.1446374913       14.4349500461
  C         4.5758011699        1.4507316088        9.9893907933
  H         3.8420793425        3.3559590502        9.5084363695
  H         4.6198271641        3.3695215099       11.0353275749
  C         5.2739451054        1.4904901891        8.6276772967
  H         3.7664214832        0.7087631363        9.8918180431
  H         5.2087533912        1.1866721140       10.8382614320
  C         6.4980762273        2.3318112107        8.6448634771
  H         4.5448152345        1.8853675021        7.9265375556
  H         5.4766044981        0.4618824793        8.1846414736
  C         7.8015654879        1.6552140414        9.1933001388
  H         6.8075276993        2.6017853386        7.6008612861
  H         6.1961519311        3.1830246801        9.1995991616
  C         9.0575243515        2.5555573968        9.1828806800
  H         7.9829343536        0.6750457436        8.6295267455
  H         7.6397352178        1.2049748174       10.2082313415
  C         8.6434360207        3.9017248556        9.7801296473
  C         9.5832123273        3.2142340441        7.9746450462
  C        10.2230404080        1.9280042126       10.0137134289
  C         9.0522569361        4.9572685221        9.0165298778
  C         8.0521276727        4.2964395526       10.9915174505
  C         9.5624739563        4.5536124221        7.7908895557
  C        10.0890691195        2.5195666481        6.8096442009
  H         9.8550670031        1.4170371195       10.8598847254
  H        10.5701652153        1.1185221379        9.3285456146
  C        11.2779741679        2.9794152080       10.4909621871
  S         8.7519452331        6.5052558972        9.7435997768
  C         8.0635076164        5.6667516346       11.1217655249
  H         7.5926855338        3.5975419156       11.5968420714
  C        10.0538205644        5.1347874782        6.6480036517
  H         9.9271924007        1.4406474148        6.7714764259
  C        10.5450525711        3.1030506530        5.6493111223
  H        10.8014492026        3.9193537096       10.9169101467
  H        11.8460817883        3.2896639468        9.5458730819
  C        12.3063999800        2.4415326923       11.5196748608
  C         7.5387367501        6.3817961140       12.3637723596
  C        10.4790085159        4.4575033779        5.4814543390
  H        10.0214899093        6.1700286492        6.4980913058
  C        10.9683362058        2.6479669032        4.4636128330
  H        13.1892407805        2.9986493701       11.5695164973
  H        12.5528761442        1.4690541588       11.0535162200
  C        11.8162421621        2.1784612423       12.9551936869
  C         7.6698138138        7.7600041460       12.5540256128
  C         7.0157101110        5.5247536582       13.5008025616
  C        10.8227999154        5.0642262904        4.1861058171
  C        11.1482478733        3.7149311764        3.6050459747
  S        11.2351633069        1.1569944933        3.8244050896
  H        11.3698037888        3.0524850347       13.3345528331
  H        10.9790370372        1.4897630509       13.1338376920
  C        12.9179701987        1.8485749152       13.9195207600
  N         7.8586118119        8.7428431451       11.5697570083
  C         7.4089923304        8.3383794658       13.8353055421
  C         6.7792555850        6.1454384532       14.7268968658
  H         6.7847313546        4.4364821441       13.4706441760
  C        11.9987099938        6.1533091583        4.2574605949
  C         9.6095367862        5.7511869644        3.5469654449
  C        11.3733690782        3.2943851610        2.3173066918
  C        11.5372902601        1.9193515725        2.3081557716
  H        13.7783418095        2.4469110404       13.6762038632
  H        13.3017133809        0.8674708024       13.7892340607
  C        12.6206880417        2.2984710934       15.3510391504
  S         7.9267450658       10.1653933866       12.3880228892
  N         7.5041116989        9.6976255796       13.8903336640
  C         6.9221087488        7.5905516242       14.9290354715
  H         6.3925882075        5.5186267723       15.5256539908
  H        11.6772807696        7.1173688591        4.7180738416
  H        12.3246265890        6.2972973286        3.2443454943
  C        13.2577920255        5.6008651373        5.0217805021
  H         9.2116331271        6.4470570817        4.2510053152
  H         9.9895182871        6.3598476357        2.7308992995
  C         8.5328488943        4.7001828714        3.0504193956
  H        11.4160055628        3.9753052807        1.5321948870
  C        11.8200899926        1.0558699365        1.0784032341
  H        12.0613038156        3.2466239377       15.5391067176
  H        11.9046798507        1.5381329540       15.7652853068
  C        13.7843618241        2.3564097469       16.3328189607
  C         6.7751185719        8.3275185553       16.1849662158
  H        13.0908052226        5.7434073791        6.0775389843
  H        13.4143469568        4.5450155395        4.8617557358
  C        14.4760945463        6.2620241449        4.5264067418
  H         8.4698385955        3.8743613078        3.7775056433
  H         8.8566813142        4.3344838792        2.0405604501
  C         7.1611644337        5.3262916156        2.9088382120
  C        11.9297578458       -0.3371048842        0.9701410157
  C        12.2045622137        1.8274177306       -0.1337310008
  H        14.4185887979        3.1874214751       16.0957524960
  H        14.3725507827        1.4554548209       16.0769321258
  C        13.3716858818        2.3226073655       17.8233386458
  H         6.6691699539        9.4197045564       16.0549220679
  C         6.4737610217        7.9814222943       17.5077799121
  H        14.1788831591        7.3245798024        4.2568480026
  H        14.8089973173        5.7237561609        3.6758117312
  C        15.6269252852        6.3132288588        5.5641318987
  H         6.5356491929        5.0021084681        3.7920730153
  H         7.2318453648        6.3769038746        2.9442289318
  C         6.4836023548        4.9108449884        1.6191037616
  N        11.6779493003       -1.1806284712        2.0549244020
  C        12.2113264760       -1.0466183958       -0.1449622923
  C        12.5445524793        1.1642337044       -1.3251163510
  H        12.0996715924        2.9355857219       -0.1815720257
  H        13.9577873284        3.0440182280       18.4405543375
  H        13.4694090069        1.3097793514       18.2644557351
  H        12.3013316249        2.5168924081       17.8435123736
  S         6.3829135268        6.3470737227       18.0289702462
  C         6.2492159083        8.9619889260       18.5660638250
  H        16.3825328162        6.9317669619        5.2684359429
  H        15.2824664882        6.6999236917        6.5103022252
  C        16.1838382714        4.9319996735        5.8617995653
  H         6.3660147929        3.8416264513        1.7943975665
  H         7.1933920625        5.1398895405        0.8226394046
  C         5.1447760443        5.5602940570        1.3932682192
  S        11.6653056491       -2.7123019957        1.6181871112
  N        12.1396721579       -2.4683493341        0.0559934668
  C        12.5275384386       -0.3315848893       -1.3569395463
  H        12.5761988845        1.7375337757       -2.2131512064
  C         5.8226946757        7.0620871201       19.5749044513
  N         5.8711364472        8.3727692453       19.7246733688
  O         6.4331749747       10.1328864830       18.3874283726
  H        15.3866561423        4.1830658571        5.9519658609
  H        16.6447680005        4.7561079249        4.8585950586
  C        17.1689635831        4.7656545771        7.0164976894
  H         4.6009620487        4.8577318480        0.7582119417
  H         4.6531925763        5.5979619500        2.3931265502
  C         5.1166562181        6.9534028036        0.8860683849
  C        12.7739470138       -1.0408497937       -2.5669525992
  S         5.5533866414        6.1276282620       21.1051181312
  C         5.8031961379        9.0797831457       20.9709255375
  H        16.7206741383        4.9854281866        7.9501903778
  H        17.3261295923        3.6914309961        7.0122064993
  C        18.4484480061        5.6450153484        6.9056598576
  H         4.6011370428        6.9396215037       -0.0717062957
  H         6.1258186718        7.2619699990        0.6887865596
  C         4.4551178572        8.1134810965        1.6911072981
  H        12.4513109749       -2.0523672101       -2.5188101289
  C        13.3387790300       -0.6748349388       -3.7632174032
  H         5.0360487680        8.6242513640       21.5488956318
  H         5.4257781415       10.1091639677       20.8584447782
  C         7.1712158102        9.0554896561       21.6553811806
  H        18.8933324699        5.5657643924        7.8835417957
  H        18.1614805560        6.6666114430        6.8233452745
  C        19.3970933914        5.2974663486        5.8444947982
  H         4.6632913788        9.0334704796        1.0654761158
  H         3.3586151700        8.0152273206        1.7338649934
  C         4.8702032351        8.3484373697        3.1216176428
  S        13.8066281996        0.8678121969       -4.2767907947
  C        13.4030149693       -1.7125208035       -4.8484486452
  H         7.8586612893        9.5626330382       21.0297815368
  H         7.5175073715        8.0860958776       22.0098590242
  H         7.1894106520        9.5691470940       22.6317590573
  H        19.0667765741        5.7106458078        4.9608662373
  H        20.4091390196        5.7593888860        6.0525903053
  H        19.5570279275        4.2186966251        5.7330611326
  H         5.2672584239        7.4422004247        3.6291470670
  H         5.6924122931        9.0359282052        3.1083964439
  H         4.1162484798        8.8270563256        3.7428554563
  C        14.2051855370        0.0994527630       -5.7880579865
  N        13.9938875711       -1.2170243543       -5.9342075342
  O        13.0175735742       -2.9004402912       -4.6362472651
  S        14.9263430016        0.9230066815       -7.1786676708
  C        13.9995287762       -2.0601721348       -7.2025316378
  H        13.9217404540       -3.1107781976       -6.9457376923
  H        14.8533970617       -1.8130202360       -7.7612871444
  C        12.8805602437       -1.6673017761       -8.0323131872
  H        12.4578169917       -0.6905757384       -7.8729483112
  H        12.0266058319       -2.4156762906       -8.0595900002
  H        13.2063217848       -1.6116055155       -9.1391884231
  H        -2.0025209657       13.1517628595       17.4344520763
  C        -2.0126121097       14.1608799275       17.1615518523
  H        -1.0440091216       14.4586264899       17.5379997939
  C        -3.0970684830       14.9663231666       17.8768245126
  C        -2.0639025795       14.2264678533       15.6037638356
  C        -3.5938082530       14.2490496807       19.1581597702
  H        -2.6662028340       15.9229582218       18.0368128877
  H        -3.8944965915       15.2150424611       17.1348294309
  H        -2.7057989182       14.9165145158       15.1111409063
  H        -1.0616825622       14.4523778351       15.3420357277
  H        -2.2145813749       13.2352636796       15.1682643236
  C        -2.4715015528       13.9670241336       20.1218591557
  H        -4.0063381704       13.3441997821       18.8603791988
  H        -4.4368881496       14.8121492818       19.5642616971
  C        -2.8147373734       13.8174886635       21.6175606540
  H        -2.1816104331       12.9796695631       19.8181417727
  H        -1.6841117964       14.6698924470       20.0105121355
  C        -1.6457215482       13.2379845336       22.3042587038
  H        -3.6286099473       13.1240707118       21.6800409512
  H        -3.0778604595       14.7653834333       22.1324730680
  C        -0.4227239392       14.1528156009       22.4950873995
  H        -1.9832493317       12.9298185960       23.3301470014
  H        -1.3467482921       12.3584900376       21.8047881637
  C         0.6423967945       13.4263882044       23.3129248818
  H        -0.0513779233       14.5629214439       21.6076592470
  H        -0.7803959499       15.0222156534       23.0920696943
  C         1.0626660168       12.0958969491       22.5382704467
  C         0.2874673211       12.6742599523       24.5318362120
  C         1.9466839583       14.2597204899       23.4012122707
  C         0.8572840774       10.9601240544       23.3582654601
  C         1.5746743141       11.7539832739       21.3004278854
  C         0.3413877885       11.3058806872       24.5958353748
  C        -0.1228908572       13.2793476235       25.7282041251
  H         2.1227859682       14.7018284379       22.4104450574
  H         1.7153076831       15.1527281625       23.9686508195
  C         3.1744223656       13.5400861593       24.0380819474
  S         1.3144205827        9.5544829892       22.4578820642
  C         1.7203046853       10.3932843671       21.1116090299
  H         1.7390506024       12.5417961796       20.5842481247
  C        -0.0440268841       10.6966367642       25.7440685163
  H        -0.2599567089       14.3650180856       25.6996343240
  C        -0.5575454336       12.5920058520       26.8078777843
  H         3.6841470094       12.8402334932       23.3711425275
  H         2.9630223786       12.9702680441       24.9142948093
  C         4.3035924978       14.5707746642       24.3777362317
  C         2.2626832882        9.6548498338       19.8644984230
  C        -0.4951011649       11.2315979802       26.9281234622
  H         0.0960777248        9.6645030543       25.7661403410
  C        -1.0556920810       12.9860327876       28.0531132740
  H         5.1257884746       14.1861805968       24.9552432452
  H         3.8091340312       15.3271465953       24.9454641398
  C         4.8918477618       15.2381180325       23.1394426254
  C         2.2001273080        8.2541190953       19.5178640888
  C         2.6276002250       10.5671338351       18.7414948638
  C        -0.8779398949       10.5240357939       28.1955466750
  C        -1.0999674929       11.9151572789       28.9036468875
  S        -1.3971288396       14.5055550386       28.8141594599
  H         5.5095358311       16.0048852520       23.6178372938
  H         4.0434382598       15.6770373638       22.6390429699
  C         5.8310739160       14.4148939665       22.2465778839
  N         1.7295043069        7.3144822046       20.4234479639
  C         2.5268572514        7.6946054804       18.3158995915
  C         2.9473765468       10.0040540612       17.4158657191
  H         2.6641359518       11.6266543546       18.8358320202
  C         0.2704524184        9.6383983502       28.6967681124
  C        -2.1498028233        9.7673642985       27.9868858644
  C        -1.5905380835       12.2785945046       30.1489020730
  C        -1.6438450488       13.6292543268       30.2906077936
  H         6.7967435370       14.8696629318       22.2545462163
  H         6.0591292603       13.4285421114       22.6372865621
  C         5.2306300966       14.3303972803       20.8301978128
  S         1.8497022355        5.8200260588       19.7055057643
  N         2.4328180689        6.2611974728       18.2640009703
  C         2.9667681422        8.5483651091       17.2224646115
  H         3.2556755849       10.7293979908       16.6781317098
  H         0.4563344336        8.8381681322       28.0167642269
  H        -0.0137367584        9.1211728336       29.6165673495
  C         1.6221791425       10.2654186255       29.0877784309
  H        -1.8661342604        9.0502131065       27.1980313415
  H        -2.3714020621        9.0791333177       28.8299408099
  C        -3.3846222707       10.5990883853       27.5348931054
  H        -1.8100556710       11.5549512406       30.8524469047
  C        -1.8088007308       14.3443829361       31.5691417127
  H         5.1396565064       15.2965508194       20.2861335050
  H         4.2300058057       13.9343869685       20.8463610336
  C         5.9772581232       13.3655052268       19.8952776585
  C         3.2567000798        7.9228872165       15.9947905947
  H         1.9800468866       10.9554253858       28.2753036998
  H         1.4159884876       10.7897239036       30.0290403254
  C         2.6991637797        9.3213987145       29.3959401208
  H        -3.1945686070       10.9869983925       26.5204969240
  H        -3.6439217370       11.3734515860       28.2352198645
  C        -4.5924221883        9.6829566045       27.5701745813
  C        -1.8329515712       15.7366433761       31.8549566745
  C        -2.0077183962       13.4744702012       32.7604600358
  H         7.0196262186       13.2330652993       20.2649132571
  H         5.4785039992       12.3609834165       20.0002515293
  C         5.9642063376       13.7345119239       18.4740067276
  H         3.4463352372        6.8696495195       16.1549725334
  C         3.6611613022        8.3740545383       14.7138096937
  H         2.7964783367        8.4381714856       28.7646899861
  H         2.4670497763        8.9270351492       30.3369571621
  C         4.1167300686        9.9932702141       29.5938149159
  H        -4.3131823243        8.7999887857       27.0324513852
  H        -4.6206413127        9.2203549134       28.5176153664
  C        -5.9525432509       10.3668215106       27.0822022895
  N        -1.3650345173       16.7149864725       30.9278404375
  C        -2.1082730915       16.3084442040       33.0673668631
  C        -2.2375293312       14.0287609525       34.0772515198
  H        -2.0083920638       12.4529191174       32.6028844329
  H         6.6093800301       14.5891346594       18.1832185406
  H         6.2819607839       13.0029723968       17.8518166041
  H         4.9587809185       14.0138530771       18.1548780817
  S         4.1739407623        9.8954015793       14.1336926985
  C         3.6520447207        7.3043395400       13.6527492706
  H         4.4233370600       10.7245028455       28.8592177133
  H         4.0836303544       10.4219514981       30.5959088479
  C         5.2692272428        9.0105487286       29.6101250395
  H        -6.1628120231       11.2693840031       27.6431476769
  H        -6.7581344882        9.6707671388       27.1765963082
  C        -6.0692382505       10.7814327428       25.6241328694
  S        -1.4694120467       18.1730350745       31.5428130782
  N        -2.0114904993       17.7092865879       33.0192148779
  C        -2.4378621241       15.5126314054       34.1922718302
  H        -2.3987047458       13.3850014081       34.9136452051
  C         4.2296625904        9.1664685105       12.5430060707
  N         3.9721741885        7.8424744100       12.4569807438
  O         3.3248730712        6.1575206108       13.8691553874
  H         6.1537269401        9.5749591801       29.4421349543
  H         5.0776518225        8.2930610575       28.7782790047
  C         5.3914493115        8.1898588437       30.8843338319
  H        -5.2449734161       11.3644942275       25.3153028679
  H        -6.1218124547        9.9394591492       24.9516018031
  C        -7.2977318812       11.5119479456       25.2564161543
  C        -2.7067121263       16.2145373959       35.3949410716
  S         4.8207048178       10.0476140516       11.0866330009
  C         4.0518789447        7.0588758936       11.1588085831
  H         5.8950685188        8.6272990590       31.7025983815
  H         4.3206952598        7.9517398261       31.0501896085
  C         5.9855561472        6.7841186726       30.6270571551
  H        -7.1801333121       12.0262157033       24.3008382305
  H        -7.4298773292       12.4506529574       25.8981028236
  C        -8.5561852316       10.6890571150       25.2720240910
  H        -2.7496552943       17.2633588313       35.3156151009
  C        -3.2269714216       15.7547756001       36.5506891420
  H         4.7617755505        7.5270832888       10.4186566187
  H         4.4080669658        6.0770395987       11.4379938961
  C         2.6714642438        6.9533432758       10.4774115109
  H         6.9784073872        6.8440065274       30.2406785750
  H         5.4369892821        6.3268303824       29.8701510688
  C         5.9785971352        5.8798266642       31.9090286811
  H        -9.0840344507       10.8798704959       24.3064826713
  H        -8.3175404865        9.6262179841       25.3103928875
  C        -9.4312981627       11.0560900738       26.5122604388
  S        -3.7584304819       14.1280146115       36.9591451049
  C        -3.3879115818       16.7500307543       37.6499478157
  H         2.7592920563        7.6407130471        9.6265734740
  H         2.4975806955        5.9172725379        9.9681223926
  H         1.8074660436        7.1331123332       11.1914768588
  H         6.5612507886        6.3407625104       32.7547688445
  H         6.4234730639        4.8671993368       31.7971727848
  H         5.0272245668        5.7111499880       32.3284183971
  H        -9.3480615798       12.0751625801       26.8225841765
  H        -9.0654773702       10.5106976831       27.3692396542
  H       -10.4861524734       10.9944855648       26.1830974034
  C        -4.2644305870       14.7622763894       38.4773700562
  N        -4.0128641700       16.1057827873       38.6645320261
  O        -2.9208427422       17.8678641639       37.6127620294
  S        -5.0480274104       13.8379572684       39.7209067629
  C        -4.3115406603       16.8073793450       39.9162546621
  H        -4.3754957336       17.8657625518       39.6967267597
  H        -5.2339272393       16.5624308992       40.3158277890
  C        -3.2329178737       16.6411897194       40.9605187307
  H        -3.0428417730       17.6400175734       41.3813695684
  H        -3.7003504001       16.1002394237       41.8076041451
  H        -2.3971285657       16.1067997578       40.5293837232
