352
i=
  H         4.4835275845        1.6871928692       12.6400659023
  C         3.4256555322        2.1008956855       12.6784260341
  H         3.5239062124        3.1591433716       13.0063174796
  C         2.8813305892        2.0142870560       11.2136872229
  C         2.4581801167        1.5048854621       13.6608887995
  C         3.7823013244        2.5692081429       10.0907904566
  H         2.0091268797        2.5431085359       11.1471405401
  H         2.6967888621        1.0103188364       10.8646434403
  H         1.5794307112        1.0435813374       13.2615752599
  H         2.1819414575        2.2346441483       14.3717435434
  H         3.0974746346        0.8138943597       14.3039648479
  C         4.6004541695        1.4438564462        9.3805388149
  H         3.1911366154        3.1959496511        9.4060588648
  H         4.4473019379        3.2951683725       10.5447775658
  C         5.4748024928        1.6603451336        8.1730187704
  H         3.8534221417        0.7959562584        9.0473934723
  H         5.1987336551        0.8291792168       10.0848131400
  C         6.6775903933        2.5220792551        8.5019287441
  H         4.7548136118        2.1497973519        7.4922672125
  H         5.7761422135        0.7770399541        7.6367698571
  C         7.9252744468        1.8391177717        9.0985978743
  H         6.8202217688        3.0304175244        7.5805824903
  H         6.2876047035        3.2849458304        9.1937860003
  C         9.1373845753        2.6501282968        9.3659797147
  H         8.2458579037        1.0612741778        8.2995208431
  H         7.5710466239        1.3659013932        9.9773887266
  C         8.7420271405        3.9984773653       10.0662115691
  C         9.6052817724        3.3967874502        8.1587611906
  C        10.2573982351        1.9162918774       10.1254257682
  C         8.9946776738        5.0923480654        9.2624008914
  C         8.1667954016        4.3012700613       11.3075619799
  C         9.5731403888        4.7345055445        8.0655815898
  C        10.0578892113        2.7064017684        7.0079970715
  H         9.7604004553        1.5175373753       11.0347682368
  H        10.4064004817        1.0221640432        9.6168874831
  C        11.5360583779        2.7460202916       10.4048195516
  S         8.4282269761        6.5470177971        9.9880712855
  C         7.9575643257        5.6630237034       11.3940488397
  H         7.7888053089        3.5649512134       11.9794226163
  C         9.9708263772        5.3435415256        6.9130308000
  H        10.0417617136        1.6235574874        7.0195317058
  C        10.4250559794        3.3790786966        5.8660395647
  H        11.4007387857        3.6744499847       10.9055507038
  H        12.1048790194        2.8954238181        9.4829892200
  C        12.4169171865        2.1094872148       11.3781826431
  C         7.4311159700        6.3629815012       12.6316098754
  C        10.3465970705        4.6996216631        5.7343487817
  H         9.9792358921        6.4349808619        6.7966360527
  C        10.7612931874        2.9714677455        4.5607615727
  H        13.4196104474        2.4542981924       11.1611970804
  H        12.3607321041        1.0074154785       11.3697911079
  C        12.0023107877        2.7066154079       12.7408207256
  C         7.4148537276        7.7312227847       12.9131153202
  C         6.9625597040        5.5055958331       13.7922523975
  C        10.7096744643        5.3757123306        4.4898470197
  C        11.0209235623        4.0546801587        3.7411876522
  S        11.0515128398        1.3956013882        3.9036233752
  H        12.6084293827        3.6824718038       12.9965915166
  H        10.9300781267        3.0857835412       12.8096985847
  C        12.2304647251        1.7915515019       13.9477764900
  N         7.6721752394        8.7212778334       11.9445694336
  C         7.1523067366        8.2412352877       14.1563037694
  C         6.6676592876        6.0367254448       15.0322929141
  H         6.7128329370        4.4877283193       13.6117727048
  C        11.9994841640        6.2295558181        4.4201859936
  C         9.5030487062        6.1237998667        3.8521156126
  C        11.4897508090        3.5763991035        2.5293049000
  C        11.4961152741        2.2152630171        2.4674592893
  H        13.2737904532        1.3280523146       13.9457068237
  H        11.7635317080        0.7672941137       13.8872465265
  C        11.8325219946        2.3020797380       15.2935478824
  S         7.7601171864       10.1544306596       12.7024301741
  N         7.2613297082        9.6265587123       14.1537820541
  C         6.7116724632        7.4918895472       15.2503909205
  H         6.2289648380        5.4040523499       15.8005805881
  H        11.8017596675        6.9693242805        5.1222825517
  H        12.2379618529        6.7693246380        3.4377880005
  C        13.3256156746        5.5966201970        4.9729856246
  H         9.2306828999        6.9580210444        4.5217486910
  H         9.8313144794        6.5742977297        2.9756445584
  C         8.3039686412        5.2679949322        3.6233129665
  H        11.7248552920        4.2591627224        1.7728844085
  C        11.8193487163        1.4715064032        1.2074136931
  H        11.8848175627        3.3997789513       15.2326674671
  H        10.7814948391        2.0368177540       15.4879021749
  C        12.6549266264        1.7219828281       16.4724765345
  C         6.5010926581        8.1647961146       16.4952083618
  H        13.1487772474        5.0281081819        5.8993686959
  H        13.7637628181        4.8699698150        4.2254366318
  C        14.4700198495        6.5276840013        5.3098790127
  H         7.9398697692        4.8997200707        4.5776409848
  H         8.6325140800        4.4846909726        3.0149902914
  C         7.1361504970        6.1136698030        2.9900468399
  C        11.7802234511        0.1176138270        0.9254129267
  C        12.1346952282        2.2875644108        0.0186183183
  H        13.6793513898        1.9309653591       16.3537694075
  H        12.5588790466        0.6065526396       16.6082158363
  C        12.0984564592        2.2003221722       17.7859792816
  H         6.8127610824        9.1890002412       16.4910434700
  C         6.1156214725        7.7659894455       17.7126202136
  H        14.3029473392        7.1699053775        6.1823486504
  H        14.6224625287        7.2782311413        4.5198279388
  C        15.8093723505        5.6895154570        5.6016704750
  H         6.8468013197        6.8950711005        3.6615754774
  H         7.5418513589        6.5771080411        2.0638539112
  C         5.9606465151        5.1909674067        2.5264735598
  N        11.5385566845       -0.7917659325        1.8680042689
  C        12.0778782781       -0.4636455961       -0.2927548978
  C        12.4644434705        1.6986206753       -1.1927076416
  H        12.0231406909        3.3633350051        0.1252923454
  H        11.6154363899        3.2358580311       17.8213719775
  H        12.8996659210        2.1808627293       18.5624648584
  H        11.3090565982        1.5110366249       18.1564523792
  S         5.7937536152        6.1638169846       18.2285028306
  C         6.0876838071        8.7769568673       18.7721107856
  H        15.7071749639        4.6631680919        5.3092021048
  H        16.6350731641        6.1434270689        4.8830944708
  C        16.2521426776        5.7773747472        7.0539359723
  H         5.5888937294        4.5288626556        3.3328084164
  H         6.3879819877        4.4873457122        1.8247558494
  C         4.8488835443        5.9984298277        1.8707850220
  S        11.5186149467       -2.2813769175        1.2574289836
  N        11.9516464263       -1.8586929661       -0.2502528679
  C        12.4639858306        0.2495369313       -1.4255362509
  H        12.7429771043        2.3095331889       -2.0232262125
  C         5.5617909080        6.8335488944       19.8392155320
  N         5.6935761708        8.1603210983       19.8746543922
  O         6.1957287448       10.0181782055       18.6767990761
  H        16.3497178607        6.7652337383        7.3736036943
  H        15.3655227275        5.3516131278        7.6404262043
  C        17.4879285270        4.9393902817        7.4489729413
  H         5.3727474940        6.6291981915        1.2120944327
  H         4.2116546363        5.3457099729        1.3218318756
  C         4.1563263172        6.9098610622        2.8868657744
  C        12.7096107014       -0.4519414690       -2.6317046194
  S         5.1647709909        5.9618047858       21.3097326098
  C         5.6280061166        8.8966016766       21.1605982615
  H        17.3270796377        4.5216607962        8.4381799062
  H        17.6849863653        4.0767064406        6.8500155442
  C        18.8671345781        5.6230276653        7.4865577118
  H         4.5267042906        6.9397077440        3.9233679979
  H         3.1204819142        6.5728423926        3.0711898147
  C         4.1650612568        8.3483194142        2.3657456421
  H        12.8474068356       -1.5480411248       -2.4405635766
  C        13.1339893481       -0.1112974692       -3.8539697136
  H         4.8440743587        8.5643676825       21.8633723615
  H         5.4121067612        9.9378859333       20.9210411345
  C         7.0365200596        8.9042297579       21.7461127293
  H        19.4771189090        5.0717938837        8.2158699240
  H        18.7240567457        6.6013225452        7.9126700847
  C        19.5936651160        5.6187001879        6.1653869823
  H         3.8010652881        9.0394028421        3.1491823336
  H         5.1840476151        8.6616337117        2.1278804089
  C         3.2541466940        8.4720144640        1.1674197773
  S        13.5111839647        1.5191444729       -4.4378545183
  C        13.2158706990       -1.2283002054       -4.8712956422
  H         7.2115387151        8.1081932864       22.4250649096
  H         7.1392337467        9.7224953667       22.4241782936
  H         7.8374662386        9.0876559018       21.0123534514
  H        18.8695842480        5.3903135594        5.3204115078
  H        20.0869373635        6.5302961596        5.8963978320
  H        20.1991607071        4.7609616029        6.1974033131
  H         3.0395641052        9.5446294418        1.0597012580
  H         3.7678717815        8.1098368656        0.2754900141
  H         2.3330969466        7.9180503766        1.2909375783
  C        13.7307822517        0.6468099215       -6.0130914355
  N        13.6230678973       -0.7032847212       -6.0280603711
  O        12.9218971977       -2.3960533216       -4.5902751642
  S        14.4191824353        1.4123068747       -7.3625380627
  C        13.7602638431       -1.5778812906       -7.1899826528
  H        13.9945772077       -2.5704629704       -6.7795365480
  H        14.4565767714       -1.1901362065       -7.9669343614
  C        12.5301503057       -1.8138350736       -8.0272507940
  H        12.3900757720       -0.8948112440       -8.5363223549
  H        11.6285603004       -2.0858885181       -7.4632554392
  H        12.7549410003       -2.5446961820       -8.8316065247
  H        -3.7489582175       14.4327555609       16.3763363100
  C        -3.3920486768       13.4251516232       16.2977526969
  H        -4.2652568614       12.8474421309       16.2247350016
  C        -2.5468312537       12.9634440254       17.5102775663
  C        -2.5961202272       13.3085800079       15.0193194954
  C        -3.1090224932       13.3660625371       18.8715331376
  H        -2.4207877926       11.8938621973       17.4961572393
  H        -1.5470096948       13.3756360189       17.4018083908
  H        -3.2496425023       13.3446942402       14.1708200666
  H        -1.8070287735       14.0535651729       14.8406514943
  H        -2.0356038604       12.3695650360       14.9859103556
  C        -2.5147088898       12.5137458037       19.9288845521
  H        -4.1934979804       13.2078883730       18.8624149071
  H        -2.9005584351       14.4006645625       19.1724275862
  C        -2.6077307435       13.2150903977       21.2357875428
  H        -3.0176027497       11.6026062398       19.8935983273
  H        -1.5100238970       12.1836180936       19.5733429176
  C        -1.5946277968       12.5519411823       22.2570721850
  H        -3.6836172045       13.0651495928       21.5637079336
  H        -2.4040054713       14.2156202134       21.2238224219
  C        -0.5650707284       13.5387218700       22.7377084052
  H        -2.0580915672       12.0758260768       23.1023737342
  H        -1.1974918790       11.7037405897       21.8147993425
  C         0.6844548189       12.8075660709       23.3507687173
  H        -0.2636046512       14.1857935355       21.8849012756
  H        -0.7880636749       14.2839568541       23.5345661489
  C         1.0437894859       11.4558471554       22.6215360018
  C         0.2151333288       12.0326694318       24.5411346264
  C         1.8285847569       13.8263053608       23.7196061767
  C         0.7789623540       10.2853886992       23.4027391110
  C         1.6916532687       11.0777693615       21.4150767074
  C         0.2572269380       10.6739488589       24.5978171141
  C        -0.2096948508       12.6328262590       25.7088209988
  H         2.1464845141       14.4685948404       22.9176221227
  H         1.4690323332       14.5465894912       24.4749292897
  C         3.0569849261       13.0315353596       24.0730971265
  S         1.2063234269        8.7768894069       22.6765756160
  C         1.7258113788        9.7254597886       21.2892256693
  H         2.0086128548       11.9030131882       20.7797539763
  C        -0.0702979576       10.0458488753       25.7033329459
  H        -0.3141674769       13.6595885242       25.8327839671
  C        -0.5760797373       11.9437761711       26.8291741523
  H         3.3273543893       12.4878242793       23.1690610655
  H         2.7912407952       12.2608572816       24.8364903988
  C         4.2419747010       13.8357206435       24.4947288750
  C         2.1443446842        9.0190581337       20.0152815452
  C        -0.4735042472       10.5803470172       26.9183407237
  H         0.0021460759        8.9147517564       25.7423227772
  C        -1.0087528658       12.2353332465       28.1013478792
  H         5.0140252212       13.3112079326       25.1074752460
  H         4.1631821495       14.7680349100       25.1052075754
  C         4.9153701337       14.4569104308       23.2070653630
  C         2.0357465079        7.6290655824       19.7186008261
  C         2.6117712575        9.9212311068       18.9181061591
  C        -0.7784392376        9.8304519134       28.1444998144
  C        -1.1380958145       11.1130924102       28.9232607077
  S        -1.3354825450       13.6289737280       28.8993430660
  H         5.4604531021       15.3205629721       23.5868197018
  H         4.1516346205       14.8099784397       22.5645137670
  C         5.8854257592       13.7286924511       22.3404420153
  N         1.5945024204        6.5903773855       20.6069380079
  C         2.4123607036        7.1476935484       18.5091216006
  C         2.8330471901        9.4319259842       17.6800427383
  H         2.7843802630       10.9675602286       18.9894665907
  C         0.3771511631        9.0385972687       28.7205054576
  C        -1.9894757511        8.9918621655       27.9404079431
  C        -1.6524584664       11.4241167335       30.1960501840
  C        -1.7329508772       12.7772843111       30.3722366976
  H         6.5766845102       14.4294838096       21.9705653296
  H         6.5079493074       13.0424393321       22.9519775220
  C         5.3418218464       12.9075397823       21.1525388571
  S         1.8218539318        5.1584510654       19.8935689092
  N         2.4213935236        5.7369123290       18.5063243769
  C         2.7284808851        7.9389313902       17.4120209835
  H         3.1975989896       10.0731073769       16.9188162173
  H         0.8960765621        8.5160380964       27.8924918603
  H        -0.0635857695        8.1309100319       29.1488007939
  C         1.3102652341        9.7609887164       29.5818582420
  H        -1.9004828575        8.2279973045       27.2092372117
  H        -2.2591303391        8.5368499888       28.8424064932
  C        -3.2559982164        9.8345775045       27.5646908675
  H        -1.7950705051       10.5765348061       30.8618945976
  C        -2.0206770053       13.5373998755       31.5877410924
  H         4.4165949747       13.4633399070       20.8586663433
  H         5.0459804370       11.9450802809       21.4387625893
  C         6.2272590558       12.9762305699       19.9058606243
  C         2.9155151719        7.2817028916       16.1674770738
  H         1.6084453620       10.6245444746       29.0154699782
  H         0.7448741739       10.0943292221       30.4253593724
  C         2.4309257259        8.7791943226       30.0736620033
  H        -3.1114641561       10.5289491021       26.6693837405
  H        -3.5972744383       10.4850068213       28.3371645254
  C        -4.4521144659        9.0140519983       27.2238646047
  C        -2.0726333415       14.9496239933       31.7073018111
  C        -2.4365332234       12.7716360747       32.7593079005
  H         5.7407512148       12.3222541901       19.1279869376
  H         6.1744697766       14.0216419646       19.5286691646
  C         7.6636127653       12.4403015934       20.0009014812
  H         2.5351933875        6.3032268572       16.1811649092
  C         3.3443602851        7.7080032302       14.9281710219
  H         2.7401748253        8.2978002880       29.1292373260
  H         2.0049829875        8.0074706768       30.7206184662
  C         3.6921960245        9.4466828999       30.7287757946
  H        -4.1549509595        8.3852020523       26.3618814328
  H        -4.7603723581        8.4702438813       28.0780226663
  C        -5.6041680410       10.0543932681       26.8793839250
  N        -1.7320748034       15.8930842655       30.7598689733
  C        -2.3979013760       15.5610895595       32.9019882464
  C        -2.8908179926       13.4097326711       33.9434069556
  H        -2.5206536235       11.6886508544       32.6636285625
  H         7.9342341713       11.7101038631       20.7519681937
  H         7.9278403818       11.9888706332       19.0120176131
  H         8.3073360301       13.2704521048       20.1490454195
  S         3.8496793325        9.3015290017       14.4165872775
  C         3.4630396328        6.6064967093       13.9473364046
  H         3.8698721563       10.4467754250       30.2499000332
  H         3.5068206966        9.5826068775       31.7664779212
  C         4.9348961041        8.6440803781       30.5594672529
  H        -5.3521128877       10.7018085897       26.0483292735
  H        -5.7354972764       10.6803604459       27.7182321541
  C        -6.8893862236        9.3459048266       26.4066954090
  S        -2.0824955266       17.3635545919       31.2637161282
  N        -2.3288720703       16.9411077562       32.8077816476
  C        -2.8192427915       14.8589425441       34.0340938520
  H        -3.1867463783       12.7708446839       34.7748969227
  C         4.0508724495        8.5228484096       12.8110009485
  N         3.9305367561        7.1639638191       12.8258671581
  O         3.0806622068        5.4551455318       14.1023977710
  H         5.8033474898        9.3214275898       30.7569412122
  H         4.9918667238        8.4187300209       29.5892545926
  C         5.0343833133        7.4376979846       31.4916254745
  H        -6.5654707683        8.4196467654       25.9350006922
  H        -7.3867987479        8.9602225885       27.2934956307
  C        -7.7696501614       10.1810370300       25.5170649746
  C        -3.0209858725       15.6313771531       35.2552987799
  S         4.5137358537        9.3790672582       11.3347451597
  C         3.9537483136        6.3778921467       11.5683330563
  H         5.7876910716        7.6907421278       32.2269875955
  H         4.0845874421        7.2867199183       31.9638480265
  C         5.7050220426        6.1808352392       30.8803180860
  H        -7.3725877773       10.2493942550       24.5762474041
  H        -7.9472966931       11.1689844628       25.9375677785
  C        -9.0851098827        9.5410989845       25.4466556611
  H        -2.7319334214       16.6825124225       35.1613365515
  C        -3.5271893549       15.3643095881       36.4962652307
  H         4.7607460215        6.5333984576       10.8789777680
  H         4.1574587656        5.3185801041       11.7946495574
  C         2.6001278410        6.2983753742       10.8946759927
  H         4.9420391515        5.5151367900       30.3855910197
  H         6.1532110395        5.5042780801       31.5893511404
  C         6.7339711984        6.5506709483       29.8593809573
  H        -9.5075120962        9.6684892501       24.4764871832
  H        -8.9024154792        8.4465689001       25.6201018621
  C       -10.1214524185        9.9675338659       26.5137919470
  S        -4.2337166587       13.9157624291       36.9533782756
  C        -3.5784662366       16.4301668584       37.5058955781
  H         2.4643997207        5.3612593075       10.2959750613
  H         1.7526173110        6.3054271366       11.5832179689
  H         2.4933909547        7.0597639770       10.0776803930
  H         6.3772497831        6.6610945608       28.8702602084
  H         7.3986961605        5.7558068489       29.5938838817
  H         7.3823533195        7.3943978222       30.2257446290
  H       -10.9633761637       10.5488474982       26.1164278022
  H        -9.5728074548       10.5130359609       27.2333961052
  H       -10.4980237975        9.0428214524       27.0515041131
  C        -4.5518419749       14.7505059948       38.5395752155
  N        -4.2005564055       16.0472782595       38.6145132695
  O        -2.9314360495       17.4370577477       37.3013796499
  S        -5.4573302107       14.0354965264       39.8786900785
  C        -4.3250187663       16.9152228952       39.7673928581
  H        -4.0823131222       17.9685562879       39.5573552392
  H        -5.3584709803       16.9268935591       40.0748496042
  C        -3.5508483063       16.2320950559       40.8698432665
  H        -4.1081077274       15.6006882133       41.5405085212
  H        -2.7546190597       15.6642775047       40.3604335741
  H        -3.0379987512       17.0045836516       41.4047004865
