352
i=
  H         4.2154414751        1.1958963998       12.4420069508
  C         3.6811181957        2.1141954693       12.5997499559
  H         4.4941163802        2.9229259193       12.5299137525
  C         2.7427930583        2.3049939483       11.3887005566
  C         3.0349626920        2.4221226623       13.9800575089
  C         3.5341769794        2.7825143070       10.1602631362
  H         2.0826161402        3.1741913294       11.6468472792
  H         2.1819105494        1.3784703857       11.3428774994
  H         2.7071957906        1.5272691070       14.6120082561
  H         2.1822364586        3.1434887352       13.9404350216
  H         3.8705130394        2.8193913847       14.5872116587
  C         4.5131873847        1.6823689276        9.6959661354
  H         2.7420325520        2.9648428277        9.3743794717
  H         4.2348398572        3.5372691971       10.3983466712
  C         5.2356167772        1.9144996597        8.3688259246
  H         4.0697093314        0.7302664203        9.5338412814
  H         5.2606628476        1.4841430315       10.4299232995
  C         6.5625345954        2.7378914465        8.5010653767
  H         4.5218700820        2.3103799340        7.6534426907
  H         5.4242262493        0.9274251328        7.9634392003
  C         7.8301944441        1.9462972948        8.9789016490
  H         6.8251170094        3.3144840225        7.6707109668
  H         6.4454264690        3.3823887425        9.2956521361
  C         9.1196536243        2.7914000769        9.0932941072
  H         8.0334159327        1.1887343988        8.2039767542
  H         7.6783728680        1.4372817724        9.8832198548
  C         8.7815555314        4.1475694138        9.7221853687
  C         9.5146624006        3.4842315061        7.8074841931
  C        10.4066473006        2.1561083387        9.8054815497
  C         8.8962147741        5.1869321247        8.8661108814
  C         8.3362391007        4.5175004529       11.0037390432
  C         9.3275509642        4.7753809910        7.6282992464
  C        10.0679898347        2.7719440642        6.7100309068
  H        10.0172645262        1.7045292452       10.6936961205
  H        10.7748901922        1.2972424986        9.2271643643
  C        11.5475523607        3.0730982792       10.1834587849
  S         8.2834916774        6.6875914858        9.5585036549
  C         8.0924051018        5.8638579542       11.0422716435
  H         8.3817828195        3.8884699635       11.7953662231
  C         9.6392183123        5.3717965055        6.4806551393
  H        10.1192106369        1.7250693447        6.7941324857
  C        10.3533008128        3.4043102404        5.5118523772
  H        11.1973146032        4.0662735555       10.3804073259
  H        12.3043414132        3.1736169995        9.4073730510
  C        12.3776945359        2.6212473779       11.4112270350
  C         7.6693564916        6.5390667219       12.2678181143
  C        10.1382193097        4.7505800869        5.3719233160
  H         9.4361355527        6.4423554801        6.3574470967
  C        10.9102868350        3.0410318676        4.2654233104
  H        13.3613438604        2.9775598781       11.3155837695
  H        12.5051855495        1.5406777419       11.3729488637
  C        11.8413157541        2.9729131806       12.8758452410
  C         7.8703428455        7.9582148795       12.5500137199
  C         7.1013304299        5.7113048636       13.3366601623
  C        10.6283153082        5.4431740840        4.1105151359
  C        11.0914664160        4.1551573062        3.4739756145
  S        11.1960794370        1.5750278563        3.5209740101
  H        12.5466357673        3.7226720281       13.1224053170
  H        10.8735186866        3.4656410573       12.8910144063
  C        11.8300301079        1.7295928742       13.8383773912
  N         8.4733917886        8.8346648901       11.6633720178
  C         7.5040974672        8.5156130606       13.8215456811
  C         6.8064950906        6.2287613691       14.6326513472
  H         6.9087513255        4.6534642577       13.2030831879
  C        11.7146642607        6.4588081826        4.2879573447
  C         9.5052803473        6.1082553609        3.3449275771
  C        11.5438490526        3.8033324462        2.2119455296
  C        11.6203810506        2.4435976347        2.0136969759
  H        12.7669680921        1.2948530433       13.5973770202
  H        11.0379285703        1.0499049586       13.4707070913
  C        11.6818528717        1.9318266066       15.3455125918
  S         8.2703805672       10.3182928106       12.3300568455
  N         7.7624561705        9.8993470269       13.8091469765
  C         7.0007728640        7.6650547656       14.8902301421
  H         6.4457438569        5.5215949248       15.3219891353
  H        11.3362639014        7.2727302177        4.8855884565
  H        12.0466279919        6.9029165256        3.4056954462
  C        12.9144793949        5.8654144647        5.0488821774
  H         9.2283903672        7.1438817420        3.6837118996
  H         9.8779269053        6.2945834330        2.3608656251
  C         8.2319764276        5.2405709101        3.0642532295
  H        11.6839132849        4.6166394755        1.4211450830
  C        11.9858056161        1.7726197352        0.7043602372
  H        10.8363278512        2.5007475352       15.6874318310
  H        11.5835508421        0.8403081597       15.7016393170
  C        12.9234147391        2.4430802100       16.0486729933
  C         6.9292054466        8.2714718237       16.1776331376
  H        12.5366330949        5.2114526563        5.7751600359
  H        13.2739580946        5.1508590820        4.3193368565
  C        14.1178875236        6.7421646797        5.4312207460
  H         7.6775302198        5.0646316844        3.9917520527
  H         8.6085708186        4.2408251785        2.6972466241
  C         7.3259990375        5.8437957837        2.0159138016
  C        12.1121000226        0.3831942283        0.5354844667
  C        12.0674322672        2.6010994046       -0.4751967461
  H        12.8510969404        3.5525864171       15.8055648538
  H        13.8748948895        2.0460683275       15.6568483994
  C        12.9138027950        2.3208301674       17.6004544145
  H         6.9310238314        9.3003433591       16.1331701347
  C         6.6552398536        7.7527594391       17.4702193646
  H        13.9318490756        7.7067232100        5.9788982960
  H        14.7312276073        6.8913351103        4.4381918588
  C        15.0982809873        5.9833055855        6.2846060260
  H         7.3234381562        6.9042254738        2.1451326051
  H         7.7929960990        5.7556105539        1.0103983319
  C         5.8766754778        5.4400359950        1.9050837026
  N        12.1122572652       -0.5238997751        1.5673292061
  C        12.4662529557       -0.1490000495       -0.7308494726
  C        12.4660769447        2.0985696393       -1.6700336992
  H        12.0299483399        3.6687331564       -0.3595420096
  H        13.8886838134        2.1896166237       17.8757775262
  H        12.3914217760        1.4895875156       18.0426240720
  H        12.7066871218        3.2026088937       18.1574997457
  S         6.4334098239        6.1780181850       18.0712518248
  C         6.6863991752        8.7659716381       18.5440184067
  H        15.1962121240        6.4544535212        7.2145565732
  H        14.6016406306        5.0416866590        6.5280332882
  C        16.4456299809        5.7636741690        5.6314928615
  H         5.7958609621        4.5616967948        2.5152623511
  H         5.5326777911        5.3459879929        0.9069358398
  C         4.9857129097        6.6144602069        2.4269651013
  S        12.2680061481       -2.0361405494        0.8955423799
  N        12.5465985311       -1.5483448250       -0.6507051589
  C        12.6840973817        0.6378597958       -1.8756141252
  H        12.5908205549        2.7206256713       -2.5092785190
  C         6.2931763660        6.8595822503       19.6538828556
  N         6.3664685515        8.2539136937       19.7248386496
  O         6.8664078609        9.9830974654       18.3652976177
  H        16.3004843726        5.2376880968        4.6701855480
  H        16.8891671173        6.6611719491        5.4790273022
  C        17.2534841022        4.8195639909        6.4265837131
  H         4.0592500216        6.2566477253        2.8926283681
  H         5.5868816112        7.0738656383        3.2026864877
  C         4.6459081970        7.6196135170        1.3781457630
  C        13.0544698802       -0.0955521458       -3.0536661212
  S         5.7244106993        5.8567554686       20.9878344679
  C         6.2112992657        9.0359235834       20.9625996242
  H        16.7324806417        4.1815790596        7.1026766524
  H        17.8703447937        4.1452901649        5.8841711228
  C        18.1108953098        5.7727755836        7.2966189060
  H         4.0343880593        7.1828151173        0.5895189921
  H         5.5855291962        7.8629472600        0.9635207336
  C         3.7493286007        8.7612379128        1.8511634185
  H        12.9946528699       -1.1273213260       -3.0074977178
  C        13.5659850390        0.3343484055       -4.2859179356
  H         5.2963430407        8.6643151001       21.4477843021
  H         5.9112214950       10.0586299010       20.7477909039
  C         7.4544251836        9.1411875196       21.8392661437
  H        18.4265776750        5.1451689753        8.1465757953
  H        17.4413348141        6.4396756794        7.8097029820
  C        19.3491606818        6.3633433595        6.6024450048
  H         3.0063699349        8.6995072307        1.0650217277
  H         3.3431095457        8.4803406756        2.8400577299
  C         4.4245815332       10.1362133484        1.9147536536
  S        14.0709067962        1.9269714467       -4.7359343944
  C        13.6615308704       -0.6193268072       -5.3493081308
  H         7.1132802180        9.3344450455       22.8689738387
  H         8.0107654388        9.9585296292       21.4177275876
  H         7.9455146400        8.2188446760       21.8932219679
  H        20.0303110503        6.8983317758        7.2427791403
  H        19.8940261832        5.6726191485        5.9712078034
  H        19.0069164685        7.1951103470        6.0247447375
  H         5.3214480433       10.0957301512        1.2414917923
  H         3.8211232579       11.0235033199        1.5796847033
  H         4.7826564500       10.4370733826        2.9038931072
  C        14.4722252594        1.2475769469       -6.3232979761
  N        14.2380303174       -0.0694954203       -6.3977149670
  O        13.4810186833       -1.8228992616       -5.1932787567
  S        15.2927086383        2.0718145504       -7.6752509271
  C        14.6031197604       -0.9213762201       -7.5071711485
  H        14.4510965858       -1.9480605014       -7.2296219900
  H        15.6373152759       -0.8468089175       -7.7224908078
  C        13.8179151317       -0.5136026019       -8.7427683736
  H        13.3992086876       -1.4600718696       -9.0718300638
  H        14.2663119024       -0.0499803503       -9.6397000824
  H        12.9785252405        0.0600135053       -8.3743415283
  H        -3.7457409273       14.4857153192       16.8375014077
  C        -3.3245715904       13.4336859717       16.7320406010
  H        -4.1538759081       12.7650397674       17.0209848684
  C        -2.2585913893       13.3854512512       17.7043120681
  C        -2.7922968642       13.1025991109       15.3507653778
  C        -2.8035575824       13.4438360685       19.1400263621
  H        -1.6761966640       12.4396838827       17.6332876699
  H        -1.5703964643       14.2826558381       17.6817577960
  H        -2.9063144297       12.0025621164       15.1004443581
  H        -3.2333257198       13.7796881982       14.5685378322
  H        -1.7709492696       13.3971592864       15.3392872071
  C        -1.6898242960       13.4075885419       20.1670222813
  H        -3.4513531329       12.6136449197       19.1935152695
  H        -3.4136497270       14.2580312462       19.5364431933
  C        -2.2886524340       13.2996977867       21.5372494973
  H        -1.0527881730       12.4815673052       19.9814472741
  H        -1.0385341946       14.2300867161       20.0742823294
  C        -1.2439050254       12.7445708350       22.5735867963
  H        -3.1209886971       12.5944541367       21.5595685374
  H        -2.6114473047       14.2496175303       21.9463264210
  C        -0.0353268803       13.6901536881       22.8123941957
  H        -1.7389362101       12.7064519613       23.5130048931
  H        -0.9526737844       11.7364960817       22.4487647821
  C         1.2171452936       12.9684572645       23.4675952087
  H         0.4184408429       13.9283600461       21.8521579315
  H        -0.3550517806       14.5682421402       23.3581346148
  C         1.4975945409       11.6131200680       22.7764575865
  C         0.8962481870       12.2758239791       24.8198143093
  C         2.3622366821       13.9202376790       23.4531078901
  C         1.3870491223       10.5530101871       23.6208626499
  C         1.8935698244       11.1526232708       21.4650467580
  C         0.9272128157       10.9065255353       24.8650043197
  C         0.5643417253       12.8953886349       25.9796743908
  H         2.4882980320       14.5228764580       22.5794286304
  H         2.1012109104       14.6298014016       24.2253778961
  C         3.7231521829       13.2737965589       23.9043832500
  S         1.7360827725        9.0622504919       22.8778488963
  C         2.0490170344        9.8419009632       21.3915101565
  H         1.9816959878       11.8457664805       20.6721979842
  C         0.5349173347       10.2131434228       25.9687843292
  H         0.5405445270       13.9047084590       25.9682541344
  C         0.3009931023       12.2065960444       27.0909933753
  H         3.9114231659       12.2395509444       23.4587698857
  H         3.5113930547       12.9453169905       24.8786949879
  C         4.9266651764       14.2229862721       23.8992691177
  C         2.4758333173        9.1224636802       20.1612165091
  C         0.2342363977       10.8685308026       27.1648624685
  H         0.4071792051        9.1284865604       25.9269472385
  C        -0.1265093411       12.5751037605       28.3700676522
  H         5.7375024819       13.7146287708       24.4455399604
  H         4.7167753394       15.0468141463       24.5172788482
  C         5.3774355482       14.8096893818       22.5128610462
  C         2.5168583838        7.7200908730       19.9345258077
  C         2.9442137328        9.9118443492       18.9425767424
  C        -0.0645766370       10.1712963998       28.4739626126
  C        -0.2766976945       11.4931163565       29.1969502374
  S        -0.5008121746       14.0370173717       29.1243340055
  H         5.3550519428       15.8848217270       22.5073797284
  H         4.5902504242       14.5749122677       21.7695149412
  C         6.7301435664       14.3818151301       21.8807778455
  N         2.3131321721        6.7473604908       20.8554341032
  C         2.8335054131        7.1899225049       18.7134503489
  C         3.3207865654        9.3289075801       17.7604848541
  H         3.0317626269       10.9649796456       19.0398807814
  C         1.0525154559        9.3264156503       29.0509979789
  C        -1.3744793444        9.3427085881       28.3929193938
  C        -0.7556476897       11.8703563661       30.4820604766
  C        -0.9419931888       13.2293008478       30.5292879199
  H         6.9461300917       14.9167532104       20.9452637364
  H         7.5776193080       14.4924441570       22.5586033933
  C         6.6390609499       12.9625322350       21.3052224978
  S         2.4246188344        5.2496176645       20.2041364865
  N         2.7089261703        5.8167371127       18.7078625737
  C         3.2613064429        7.9399987323       17.5445226143
  H         3.6542124837        9.9360301868       16.9621145622
  H         1.3960415665        8.6559819131       28.2322172380
  H         0.7017841668        8.8684366057       30.0098727235
  C         2.3077560142       10.2261113152       29.4689428172
  H        -1.2741064645        8.5664239162       27.6571811514
  H        -1.5555166785        8.8031362039       29.3205645598
  C        -2.6399492907       10.1644450849       28.0337802135
  H        -1.0999561646       11.1629407185       31.1989579831
  C        -1.2356674955       13.9511607239       31.8108966233
  H         5.6002357910       12.6531994033       21.0267874836
  H         6.9652870075       12.2262505334       22.0387130331
  C         7.4813672662       12.7743041985       20.0142910473
  C         3.4306852801        7.2222556558       16.3270304836
  H         2.5826428206       10.8628426817       28.6840757288
  H         1.9344718570       10.8009565565       30.3078287531
  C         3.5397480481        9.5247188200       29.9746290150
  H        -2.4790405749       10.6140134013       27.0555233228
  H        -2.8439965608       10.9801754680       28.6976546638
  C        -3.9078027224        9.3864490121       28.0715051057
  C        -1.3965222904       15.3707951783       31.9192103638
  C        -1.5602054512       13.1337302474       33.0167308138
  H         8.4758141695       13.2972186162       20.0944853573
  H         7.7017477263       11.7259448220       19.9425633305
  C         6.7306825133       13.2518413328       18.8372940772
  H         3.1619354814        6.1951101387       16.2696933881
  C         3.7757269404        7.6347006790       15.0626585031
  H         3.9220706369        8.8766016261       29.2500908445
  H         3.1977208196        8.9452573195       30.8190745855
  C         4.6537573553       10.4465468242       30.3242669803
  H        -3.8052256304        8.6092695483       27.3214023603
  H        -4.1219504482        8.8876936740       29.1219679764
  C        -5.1641168693       10.2057098415       27.8432079993
  N        -1.2599302734       16.3264358199       30.9029422381
  C        -1.7483657103       15.9654560423       33.1396054654
  C        -1.9552295729       13.7442956934       34.2030103393
  H        -1.5262471541       12.1023497066       33.0140971991
  H         5.7024383312       12.9572790335       18.9102723839
  H         6.8128153493       14.3493265976       18.6781065743
  H         7.2949542211       12.7486408213       18.0377027549
  S         4.0661554471        9.2853774166       14.5574158920
  C         3.6633558840        6.6747273268       13.8832126321
  H         4.7429252434       11.3327669033       29.6994023594
  H         4.3146463885       10.7991914928       31.2502567600
  C         5.9804246943        9.6879396153       30.4671927499
  H        -5.0994976308       11.1020860346       28.4622249344
  H        -6.0508332509        9.7722061720       28.2732804575
  C        -5.3720337012       10.6496373928       26.3625259254
  S        -1.3538976225       17.7967663405       31.5462435130
  N        -1.6837005822       17.3995710647       33.1271971745
  C        -2.0354445183       15.2388923166       34.2745195604
  H        -2.1730460745       13.2223339696       35.1254755758
  C         4.0885333707        8.7085751356       12.8809146941
  N         4.0233420216        7.3692162761       12.7716376579
  O         3.4651045166        5.4979339884       14.0721225227
  H         6.6778784929       10.4003134178       30.9688047500
  H         6.4536837934        9.6346642925       29.4933482476
  C         6.0850950250        8.3433828345       31.2096847637
  H        -4.8583804603       11.6077606554       26.2639259961
  H        -4.9022375555       10.0130193026       25.6417930884
  C        -6.8261158403       10.8644717108       25.9632710315
  C        -2.3961474817       15.9529135323       35.4730324496
  S         4.5057703916        9.6462872606       11.4828453576
  C         3.9070050418        6.6821954443       11.4929028881
  H         6.6813600455        8.3858351978       32.1455471716
  H         5.0422599097        8.1319373929       31.5798661236
  C         6.7196694930        7.3315628429       30.3487036338
  H        -7.0814732517       11.2157899447       24.9362970906
  H        -7.2875315804       11.6417842095       26.6084852796
  C        -7.5208233162        9.5035796816       25.9723492364
  H        -2.2343854335       17.0158959213       35.3976760606
  C        -2.7346713966       15.6358294716       36.7081870890
  H         4.3948257778        7.2011788303       10.7371558049
  H         4.4088813882        5.7257113210       11.3974685469
  C         2.4879088260        6.3108560104       11.2765987289
  H         7.6192136706        7.7464380877       29.8811354609
  H         6.0984754548        7.1522610594       29.4574090129
  C         6.9602777598        6.0268192017       31.0801042452
  H        -7.8231826019        9.2943620304       24.9475260283
  H        -6.8808820844        8.6858443606       26.2387958690
  C        -8.8353391167        9.4251730222       26.7470806437
  S        -3.2777960462       14.0821454573       37.1857820721
  C        -2.9933531494       16.7066600949       37.6822204580
  H         2.2996519338        5.2493832441       11.2944190877
  H         1.7679224144        6.6646040995       12.0321651963
  H         2.2551934100        6.6377194265       10.2356090701
  H         7.7430001812        6.0947891209       31.8611793306
  H         7.2120029157        5.2113431113       30.4069830283
  H         6.0001120918        5.7459148331       31.4978338594
  H        -9.5708059069       10.2048216670       26.6267475011
  H        -8.5260498812        9.2606340756       27.8025644250
  H        -9.3966128986        8.5478519077       26.5102781769
  C        -3.8951474489       14.8547375153       38.6670331878
  N        -3.7103166856       16.2167785764       38.6935959474
  O        -2.6508348670       17.9146011109       37.5807913892
  S        -4.9150830782       14.0133990970       39.8870366286
  C        -4.2097718973       17.0678053506       39.7767067642
  H        -4.2760486110       18.0687894379       39.3522011790
  H        -5.2493297932       16.7918983200       40.1308254623
  C        -3.2223465788       16.8780818085       40.8879893858
  H        -3.7122519057       16.2287460290       41.6378568248
  H        -2.2828349893       16.3112767114       40.6616762580
  H        -2.9165315176       17.8079717398       41.3565590238
