352
i=
  H         4.4133063462        1.9961012199       12.5707094223
  C         3.6349678138        2.7961571914       12.6280680055
  H         4.2033855195        3.7577626273       12.5020431915
  C         2.7465374852        2.7649964054       11.3176867005
  C         2.7900156299        2.5992874906       13.8285873168
  C         3.4539610791        3.0282435440       10.0488013337
  H         1.9656027581        3.5816144639       11.6145132801
  H         2.0585858464        1.8906716607       11.3474550889
  H         1.7382018178        2.7400511371       13.5495473410
  H         2.9934470722        3.1678103631       14.7376949228
  H         2.9136758870        1.5833460617       14.3174907286
  C         4.2148586118        1.7278939547        9.5637934936
  H         2.7316522008        3.1993591411        9.2280013026
  H         4.1684313321        3.7937282678       10.2114144089
  C         5.1493118380        2.0159704537        8.3600370778
  H         3.4524184834        1.1620356564        9.1001638326
  H         4.7447638265        1.3389423439       10.3822944670
  C         6.3807607583        2.9561234497        8.5870854034
  H         4.5436129668        2.1584956984        7.4806557886
  H         5.6354002025        1.0457687148        8.1621759751
  C         7.5849172885        2.0908366844        8.9733196727
  H         6.5531291097        3.6881869629        7.7706366258
  H         6.1154692855        3.5368163515        9.2588007527
  C         8.9391114907        2.8636501612        9.2393713720
  H         7.6559878760        1.3744844623        8.2233435272
  H         7.2281959577        1.6903433913        9.9468373049
  C         8.5808240738        4.2340341746        9.9509271468
  C         9.3004644504        3.5515838567        7.9817536457
  C         9.9928187783        2.0523838414        9.9699537929
  C         8.7817258853        5.3156185474        9.1137431220
  C         8.1021371553        4.7386328578       11.2471276401
  C         9.3639180874        4.8949031290        7.9472108183
  C         9.7448624880        2.8514294372        6.8666686741
  H         9.5958423354        1.6959323286       10.8910436076
  H        10.2211324559        1.0977097430        9.3614928684
  C        11.2135328464        2.8596646809       10.2724313401
  S         8.3303574191        6.8303907318        9.7796133509
  C         8.0433190563        6.1024410777       11.3362323697
  H         7.9817623186        3.9272768721       11.9337483278
  C         9.7389758087        5.5487341959        6.8403758327
  H         9.7216837986        1.7596088518        6.9505742816
  C        10.2146013390        3.4787087690        5.7784109966
  H        10.9270903025        3.7992908116       10.8411386615
  H        11.5725637844        3.2596334519        9.2076254243
  C        12.3311993019        2.1510011607       11.0445493579
  C         7.8597938404        6.7900765664       12.6280466017
  C        10.2240160827        4.8834990786        5.6695507164
  H         9.8373194910        6.7593972416        6.7426649098
  C        10.6017222042        3.0636534507        4.5444566645
  H        13.1656892743        2.8943199646       11.0991894479
  H        12.5845561042        1.1771466345       10.6715252832
  C        11.8795689840        1.7585215136       12.3934533198
  C         7.7645923363        8.1992504781       12.7444622969
  C         7.6225654732        6.0093851730       13.8117287415
  C        10.7138043492        5.4483117122        4.3834441254
  C        10.8769903590        4.1276670663        3.7456266195
  S        10.8410483629        1.5032981718        3.8541207576
  H        11.3085968401        2.5753983052       12.8253634230
  H        11.2899347310        0.9093963574       12.4787333684
  C        12.9960052487        1.7346380870       13.5508754563
  N         8.1453898165        9.2140522112       11.7712411582
  C         7.5796516425        8.7769799641       14.0348578048
  C         7.3784862363        6.6006286330       15.0517173072
  H         7.6902698810        4.9631534409       13.7024200350
  C        12.0650771073        6.3046273194        4.5572086878
  C         9.5984198606        6.2931699890        3.6227545609
  C        11.2813463453        3.6417400216        2.4439439846
  C        11.2237142227        2.2005694932        2.3391724834
  H        13.7368759220        2.4335307832       13.1633118889
  H        13.4710603962        0.7778102785       13.4885353729
  C        12.5456139113        2.2625650488       14.8242823006
  S         7.7657780127       10.6723391608       12.3622359336
  N         7.6060802943       10.1599000203       13.9377229120
  C         7.1913107649        7.9619906301       15.1786367243
  H         7.1051074709        6.0317583819       15.9008357586
  H        11.9231350331        7.2843394594        5.1325089865
  H        12.4637169011        6.5735492627        3.6430473076
  C        13.2192493876        5.4637802041        5.2014155688
  H         9.1829938861        6.9141046927        4.3211771176
  H        10.0627258602        6.9549762720        2.9285707361
  C         8.5321330033        5.3975124222        3.0626311089
  H        11.5254246028        4.2983244311        1.5987633033
  C        11.4646128982        1.5916073339        1.0321738510
  H        12.2098140480        3.2655040729       14.8526600169
  H        11.7341308777        1.7322455534       15.2723835520
  C        13.5709224548        2.0913835176       15.9300995305
  C         6.8072730977        8.6674484449       16.4254708372
  H        13.0308088988        5.1078420345        6.0500242885
  H        13.2679673467        4.6195733935        4.6418513301
  C        14.5415287529        6.1843492276        5.1714246750
  H         8.1938686452        4.6590483246        3.7778844497
  H         8.9197867050        4.7923381516        2.2132585282
  C         7.4367646889        6.3305238127        2.4446236084
  C        11.6359693545        0.1740652514        0.9310508257
  C        11.6862583076        2.3470202760       -0.1745833218
  H        14.3572764682        2.6806404893       15.5481746620
  H        13.9069439170        1.1131150482       15.9497197031
  C        13.1033962515        2.6629372802       17.2808298920
  H         6.8193223045        9.6824644321       16.4116326286
  C         6.3514412755        8.2673746434       17.5998380654
  H        14.5042685202        7.1042044200        5.8693640066
  H        14.8114529559        6.6372597885        4.2043752858
  C        15.5877512456        5.2213900562        5.6948298478
  H         6.9503776017        6.8059690525        3.3262017950
  H         8.1869203895        7.0538225959        2.0486864418
  C         6.5225521185        5.5427760885        1.4526073241
  N        11.3577788034       -0.8479431264        1.8629689004
  C        12.0331089492       -0.4284781834       -0.2933169206
  C        12.0913627113        1.7982796711       -1.3998737250
  H        11.6286311007        3.4081207378       -0.1745240263
  H        14.0033501897        2.8930197747       17.7971786960
  H        12.6965736073        1.9102645101       17.8971923629
  H        12.3827836872        3.4362522735       17.1605363286
  S         6.0403463227        6.5488578923       18.1200370491
  C         6.1807016176        9.2146557535       18.6847412909
  H        15.2373316361        4.5356673067        6.5435452389
  H        15.9530261151        4.4771122726        4.8391835525
  C        16.8669424636        5.9526615283        6.0719895667
  H         6.4781210919        4.5399936928        1.5830932227
  H         6.7493858430        5.8336739035        0.5440735896
  C         4.9976054038        5.9170552172        1.5864322886
  S        11.5406637795       -2.2543483790        1.1819369851
  N        12.0987421391       -1.7591038924       -0.2869765840
  C        12.3518188434        0.3178534597       -1.4893755621
  H        12.1434649820        2.2675966235       -2.3282844201
  C         5.8065634355        7.2337004057       19.7005915214
  N         5.9127214168        8.5574770608       19.8153341750
  O         6.0168238298       10.4215820722       18.4901008898
  H        17.2891074332        6.1674810017        5.1333688480
  H        16.6940589563        6.8746652863        6.4926195864
  C        17.9924221358        5.1580484928        6.8219443625
  H         4.2483449881        5.2182549823        1.0130436721
  H         4.6017931856        5.6720628437        2.6260249407
  C         4.7472993525        7.3909279708        1.3612690326
  C        12.7912594969       -0.3916188692       -2.6546039985
  S         5.5997093870        6.2442969877       21.1009837140
  C         5.9628255449        9.1177929387       21.1511762912
  H        17.6703133376        4.9461404287        7.7680683653
  H        18.0733374721        4.2055931114        6.3392071529
  C        19.1493543539        5.9419903595        6.8438881481
  H         4.1779575445        7.5448063014        0.4631019096
  H         5.7323541232        7.8173333498        1.1888219167
  C         4.1500396475        8.1596273658        2.5825170990
  H        12.1836401804       -1.2419146563       -2.7320056575
  C        13.3248440305       -0.0008619089       -3.8683921008
  H         5.0933188105        8.8146488136       21.7930893160
  H         5.6145388307       10.1705395669       21.1566256617
  C         7.3148076175        9.2594466527       21.9289336012
  H        19.9896702034        5.6184776390        7.5845935971
  H        18.9768542303        7.0532360845        7.2754767801
  C        20.1442673592        5.8969654622        5.6272649189
  H         3.4686112547        7.4727465431        3.0436680429
  H         4.9555173659        8.2205456497        3.3866136197
  C         3.4236201595        9.3899343010        2.2697595646
  S        13.9804665325        1.5999751343       -4.1087854645
  C        13.4971697718       -0.9170940345       -5.0224140458
  H         8.3161356148        9.4839851581       21.3669639976
  H         7.3288362022        8.3680594599       22.4281895788
  H         7.2096112392       10.1202606771       22.7298656116
  H        21.1886319156        6.2372821700        5.9881037915
  H        20.0914734341        4.8068243561        5.3480837489
  H        19.8434906889        6.6908779112        4.8731608181
  H         2.9140856763        9.8545044907        3.1983239449
  H         4.0649332843       10.3026889718        1.9714902816
  H         2.5157644201        9.3745828719        1.5398604155
  C        14.3916062702        0.9927881546       -5.7331938110
  N        14.2297628647       -0.3348746803       -5.9430198539
  O        13.2215841895       -2.1194077931       -5.0584457714
  S        15.3205981261        1.9645117799       -6.9271752385
  C        14.4902822326       -0.9029579872       -7.2287970869
  H        14.9679400249       -1.9456811867       -7.1367859106
  H        15.3081699463       -0.3325572514       -7.7533717968
  C        13.1893695083       -1.0727143247       -7.9740037358
  H        12.5488241813       -1.8843457759       -7.8437704185
  H        13.4488622696       -1.1399957146       -8.9660342925
  H        12.6032770236       -0.2452709864       -7.9019385470
  H        -3.5586229388       15.2756514612       16.3755618011
  C        -3.0449808324       14.2695539139       16.4003692113
  H        -3.4781879538       13.2781953759       16.7861831954
  C        -2.0357686691       14.6498761206       17.5300432839
  C        -2.3183097869       13.9170759349       15.1073751818
  C        -2.5004846287       14.1386093874       18.8857832167
  H        -1.0701068472       14.2746182459       17.2588273963
  H        -2.1335443408       15.6773318926       17.5642151679
  H        -3.0788668154       14.1518550980       14.3625710123
  H        -1.3615765600       14.4241116189       14.9832358819
  H        -2.1428720456       12.8515562169       15.0142383122
  C        -1.4930854645       13.6900382578       19.9336603642
  H        -3.1210843504       13.2252243871       18.8977937850
  H        -3.1429537844       14.9073265978       19.3175936441
  C        -2.1607782108       13.4997426009       21.2389480879
  H        -1.0609191380       12.7877212288       19.5386649085
  H        -0.8115574851       14.4458885266       20.0368441582
  C        -1.1853267757       12.9449411790       22.3715865128
  H        -2.8057672590       12.6814098452       21.2821901204
  H        -2.6477765358       14.3924516433       21.6252420423
  C        -0.0463044248       13.9589815107       22.7560837119
  H        -1.7225547592       12.7980082397       23.3095174870
  H        -0.8975445421       12.0032331458       22.0331567710
  C         1.2117772007       13.2401317239       23.4427015870
  H         0.3324539142       14.3719336058       21.8118810132
  H        -0.4604554794       14.6572507712       23.4400430543
  C         1.5377859787       11.9370494267       22.7125674290
  C         0.8225449259       12.3935809312       24.6142393975
  C         2.4506828137       14.2650870141       23.6582493086
  C         1.3354011831       10.7450748853       23.4302391108
  C         1.8419865095       11.5242756384       21.2972663838
  C         0.8514940440       11.0030463560       24.6227131335
  C         0.2528933133       12.9626610416       25.7416502907
  H         2.6029340924       14.8969090383       22.7860761760
  H         2.1683607710       14.7271296743       24.5364980665
  C         3.7128530237       13.4321384209       23.9334848501
  S         1.6774649756        9.2350909706       22.6055324641
  C         2.1119280559       10.1332557836       21.1482647588
  H         1.9011211977       12.3911745500       20.6083471391
  C         0.4142689153       10.3212848045       25.7351080537
  H         0.2396175617       13.9910376311       25.6260819211
  C        -0.1693537745       12.2357319523       26.8227408736
  H         4.0849596277       12.5726363502       23.2972901490
  H         3.5711873533       12.9653732151       24.8387125103
  C         4.9872051887       14.1909955596       24.0337140804
  C         2.4624768828        9.5362862231       19.9335445419
  C        -0.0840577524       10.8783455242       26.8814455296
  H         0.5487499552        9.1730012657       25.7778710638
  C        -0.7700609850       12.5543725140       28.0544029560
  H         5.6092160475       13.7040870604       24.7329915598
  H         4.8286772236       15.2590710000       24.4299312847
  C         5.7127504113       14.3483563904       22.7052638953
  C         2.5325831297        8.1067143709       19.6873676747
  C         2.6703239198       10.3452240999       18.7436779399
  C        -0.6827042481       10.1059707055       28.0290468711
  C        -1.0522078650       11.4049103832       28.7572428668
  S        -1.1698896519       14.0359219089       28.8020049054
  H         6.2266989643       15.3028918930       22.6767174511
  H         4.8984080790       14.6591813097       22.0736167477
  C         6.5010366442       13.1940750460       22.1894383347
  N         2.3719931451        7.0133890399       20.6066036209
  C         2.8352415083        7.6053138845       18.4527623422
  C         2.9922566352        9.8455313559       17.4858318163
  H         2.8102741867       11.4432604934       18.8222351004
  C         0.3959804509        9.2061876014       28.8557288889
  C        -1.9525541226        9.2985466344       27.6517034821
  C        -1.4976613421       11.8283991852       30.1606577189
  C        -1.4644492877       13.2073282009       30.3584797654
  H         7.2683815363       12.7925478942       22.8834545236
  H         5.7913568304       12.3324509432       21.9623828016
  C         7.2037316448       13.4765623804       20.8458678025
  S         2.2505758438        5.6455062436       19.7594267764
  N         2.8174630900        6.2506446350       18.3164660690
  C         3.1157456650        8.4614020491       17.2514569019
  H         3.3069328822       10.7051243819       16.7895256504
  H         0.8332895680        8.6046773102       28.0099815920
  H        -0.1827392828        8.5110928784       29.5093395746
  C         1.3293981566       10.1505414079       29.5502554934
  H        -1.7265339177        8.6149633613       26.8342702529
  H        -2.2467181446        8.7153964936       28.4886260856
  C        -3.1245608846       10.1483741926       27.1707567021
  H        -1.6116436097       10.9852354805       30.8748310703
  C        -1.6555035980       13.9293822579       31.6190196027
  H         7.3979777019       12.3783483952       20.5203037641
  H         7.9357352194       14.2010441767       21.1857188417
  C         6.2309743360       14.0233508824       19.7977335524
  C         3.3538624972        7.8054984950       16.0238928074
  H         1.5800463602       10.9127384245       28.8961688156
  H         0.8333912557       10.6411445514       30.3474928442
  C         2.5487922125        9.3246616121       30.0793856541
  H        -2.8152580591       10.6737102221       26.3240022114
  H        -3.3757084478       10.9155945207       27.9048233381
  C        -4.3557117867        9.3015105763       26.8759233266
  C        -1.6689398915       15.3155108910       31.6930223958
  C        -1.7396667620       13.1453024612       32.8129910967
  H         5.2496655789       13.4483769935       19.6849112975
  H         6.1104632143       15.1578942011       19.9793235711
  C         6.9230908356       13.8033540865       18.3823325916
  H         3.0452032597        6.7659650657       16.0189790297
  C         3.6862414833        8.2316272028       14.8122465575
  H         3.0344443771        8.6679685122       29.3396859017
  H         2.2002946348        8.6079063357       30.8148260016
  C         3.5946345109       10.2565529219       30.6814188551
  H        -4.0840248394        8.6437522117       26.1967937158
  H        -4.5191590467        8.8849211698       27.7610254263
  C        -5.4893888729       10.2247389581       26.4847645666
  N        -1.4991655448       16.3140014133       30.7154793630
  C        -1.9150701674       15.9359310476       32.9337017677
  C        -2.0472361921       13.7280635536       34.0673020931
  H        -1.4195180310       12.2143489588       32.9329708998
  H         6.1473062567       14.1555564007       17.6004452931
  H         7.7374741644       14.4440521739       18.3504379606
  H         7.1321079193       12.7388322305       18.2553802528
  S         3.8557841885        9.9446707739       14.3725985951
  C         3.8351924169        7.2323470053       13.7605348711
  H         3.7522334552       11.1430382223       30.0363056721
  H         3.3581032817       10.5836116943       31.7232115948
  C         5.0045299086        9.6333489003       30.8523225354
  H        -5.2274523825       10.7811502725       25.5753390591
  H        -5.5412013745       10.9746682494       27.2983446605
  C        -6.7586774890        9.5512398038       26.4253176925
  S        -1.5621329840       17.7708978576       31.3339683045
  N        -2.0551207219       17.3005260906       32.8361016114
  C        -2.3317403531       15.1883490032       34.1350507070
  H        -2.0965735837       13.2385504221       34.9668816819
  C         4.2315213274        9.3052528581       12.7928599719
  N         4.2574761181        7.9230423925       12.6583709057
  O         4.0073661821        6.0432644739       13.8276348420
  H         5.4966633722       10.5214552518       31.5125910256
  H         5.4793411169        9.7105143256       29.7772242733
  C         5.0536188857        8.4206501519       31.6726824907
  H        -6.4434483961        8.6637464420       25.9660417735
  H        -7.0556079906        9.3824364097       27.4722761647
  C        -7.8306767279       10.4295896087       25.5550667844
  C        -2.6542920137       15.9291373106       35.2429064196
  S         4.5824698982       10.3159386453       11.3668658195
  C         4.2717579761        7.2062180621       11.4686976033
  H         5.6836484749        8.5896923750       32.4142417504
  H         4.0681611395        8.1637514527       32.1326608553
  C         5.5216811695        7.1706966802       30.8804181878
  H        -7.5591564139       10.2527668493       24.4448914790
  H        -7.8990906971       11.4707590079       25.8579808028
  C        -9.0855945586        9.6863823679       25.6642736582
  H        -2.5154127565       16.9627467079       35.1268581157
  C        -3.1304721278       15.6135011084       36.4464089205
  H         4.8065213208        7.6401264957       10.6815731942
  H         4.8391116734        6.3267413826       11.5231136688
  C         2.8230126794        7.0313532817       10.9280526397
  H         6.5828664982        7.3619714827       30.4722482237
  H         4.8256929508        6.8938826190       30.0547701711
  C         5.5868469048        5.9550257158       31.6798271066
  H        -9.7878887942       10.0453110314       24.8906735853
  H        -9.0765164515        8.4868743919       25.6259974634
  C        -9.8935307596       10.0456712469       26.9145924939
  S        -3.5366852273       13.9245304482       36.8768058691
  C        -3.3995181890       16.6190688155       37.5179080753
  H         2.1032856493        6.3465520169       11.5214308626
  H         2.2633124812        7.9858426163       10.9770577463
  H         2.7339078450        6.8099568351        9.8857458640
  H         5.0224889547        4.9966696092       31.3688786995
  H         5.1220237719        6.1303818898       32.7460826469
  H         6.6354694096        5.6375136822       31.8269244249
  H        -9.2333803280       10.2422511330       27.8357353712
  H       -10.6544155237        9.2567779000       27.0480254973
  H       -10.4887123121       10.9798392481       26.6794240645
  C        -4.0942308769       14.6513128295       38.4245764710
  N        -3.9365364593       15.9715602713       38.5651535873
  O        -3.1247447172       17.7879543395       37.3870204156
  S        -5.0146347754       13.7856364668       39.6008058618
  C        -4.1604305890       16.7855041333       39.8185270296
  H        -4.1133724505       17.8433210986       39.6499171200
  H        -5.1669108471       16.6989995020       40.1247849034
  C        -3.0733909657       16.3493693252       40.8341703722
  H        -3.5124227915       15.4031118799       41.2599245756
  H        -2.0205216100       16.1252300784       40.2741954760
  H        -3.0146449214       17.1220965047       41.6312486161
