352
i=
  H         2.6265744027        1.3882923126       14.4138181631
  C         3.4228752939        1.7983159291       13.7369921044
  H         4.0085682698        0.9295200043       13.5303229621
  C         2.8888002851        2.5245211899       12.4688875184
  C         4.3538894055        2.6417282094       14.6800216712
  C         4.0141772062        2.9027240993       11.4186486053
  H         2.3721674685        3.4600012319       12.7798773021
  H         2.1403735968        1.8909592602       12.0066419744
  H         5.0464982576        1.9740774240       15.1850589364
  H         3.7120000319        3.0092615214       15.5416107277
  H         4.8387354229        3.4227747306       14.1485868617
  C         4.5977615669        1.6061437909       10.8069234950
  H         3.5224119618        3.6020284713       10.7296715110
  H         4.7915978321        3.5461945392       11.8274920480
  C         5.2129065216        1.6570877500        9.3544744226
  H         3.8094831907        0.8439206928       10.7144436859
  H         5.3801587591        1.3536633250       11.4630881813
  C         6.4144311383        2.5970948108        9.1702406372
  H         4.4024773517        2.0975587340        8.7989555649
  H         5.3223367909        0.7120020560        8.8690751303
  C         7.7859199906        2.0005064238        9.4297459680
  H         6.2981564582        2.8864201828        8.1346205477
  H         6.3299703310        3.5359580176        9.7847947495
  C         9.0383031001        2.8704941673        9.4513218098
  H         7.9534924278        1.3307621861        8.5851357670
  H         7.6872542182        1.3850485059       10.3565471338
  C         8.6430420765        4.2596661785       10.0864661924
  C         9.4853833575        3.6440671570        8.2265558791
  C        10.3058490429        2.1814738998       10.2023342250
  C         8.8488655794        5.3374284685        9.2836970031
  C         8.0397407305        4.6483913560       11.2971930015
  C         9.4157992817        4.9572660936        8.1234637856
  C        10.0048691188        3.0191721835        7.1016567717
  H         9.8954439478        1.8177104259       11.1415795120
  H        10.7143773348        1.3443621609        9.5794780116
  C        11.5343375169        3.0430211014       10.4099305479
  S         8.2599853906        6.8056115243        9.9768043001
  C         7.8507969896        5.9578510745       11.4121134865
  H         7.9266223103        3.8954285709       12.0828494937
  C         9.8031824461        5.6371648733        6.9885397886
  H        10.1438384634        1.9794917822        7.1305118317
  C        10.2686164963        3.6422923975        5.9482424484
  H        11.2305742801        4.0091353246       10.8581798870
  H        12.1335543311        3.4102267364        9.5949663535
  C        12.5576075251        2.5208399042       11.3954652325
  C         7.3169255951        6.6248114283       12.6230599202
  C        10.1560526615        5.0047994738        5.7914416081
  H         9.7983603645        6.7242444364        7.0666600606
  C        10.7136839973        3.1837027719        4.7132277098
  H        13.3637969900        3.1913720740       11.3417352874
  H        13.0622926398        1.5606381940       11.1130788595
  C        12.0998726705        2.6019785166       12.8185205350
  C         7.4624789937        8.0289620955       12.9467877741
  C         6.7946854574        5.8313499828       13.7288677774
  C        10.4725179674        5.5870578190        4.4754396787
  C        10.7307615120        4.2143835747        3.8207507285
  S        11.0794165512        1.6479807574        4.0044672814
  H        12.4383816223        3.6042277343       13.1563004087
  H        11.0535856755        2.5795950846       12.8572617561
  C        12.7238554102        1.5363024681       13.8372944970
  N         8.0092839474        9.0506257889       12.0980348637
  C         7.1990756157        8.5940565273       14.2204538779
  C         6.5903505620        6.3483835907       15.0031736071
  H         6.5873701112        4.7959774594       13.5027538366
  C        11.8342055893        6.3183808308        4.6333779469
  C         9.3085710011        6.4470764607        3.9702642831
  C        11.0165159845        3.7657285796        2.5051162481
  C        11.1249785104        2.3812823329        2.4169533775
  H        13.8230928337        1.8254953019       13.8988891820
  H        12.7396241925        0.5357967977       13.5094655918
  C        12.1120905409        1.5973202467       15.2349436702
  S         7.9653640991       10.5629256526       12.8036784513
  N         7.3257447395       10.0170260937       14.2322626511
  C         6.7686898465        7.7734384359       15.2988341658
  H         6.3912079229        5.6685165372       15.8217946137
  H        11.7597493291        7.3045487735        5.0508508429
  H        12.2368869551        6.5952295570        3.6503247856
  C        12.8910552682        5.4276179518        5.3351918046
  H         9.1319538304        7.2988110083        4.6897277797
  H         9.6810142280        6.8979010985        3.0384947513
  C         8.0208425271        5.7295471895        3.8331381442
  H        11.0877811298        4.4520178791        1.6860004441
  C        11.3056180981        1.6623505140        1.1110252486
  H        11.1333506438        2.0854127372       15.0869159568
  H        12.0820131519        0.5940269128       15.5433910667
  C        12.9039099536        2.3778373619       16.1873151001
  C         6.6846242208        8.3471924759       16.5782586267
  H        12.6014193804        4.9249312691        6.2113353747
  H        13.1497406449        4.6175172297        4.7141524971
  C        14.2030634897        6.1371934208        5.5522157472
  H         7.5683579493        5.2209642473        4.6596249103
  H         8.2287927351        5.0161007711        3.0517607740
  C         6.8917163562        6.6185937453        3.3574150615
  C        11.5803661284        0.2396537344        1.0646306451
  C        11.5605609686        2.3512130307       -0.1540387419
  H        12.7599660686        3.4820610899       15.9752466660
  H        13.8915669169        1.9562825737       16.0782361734
  C        12.3277569269        2.1844836051       17.6222515857
  H         7.0329988591        9.3649890285       16.5989677738
  C         6.3373087906        7.9416817545       17.8043236368
  H        14.1323514903        6.9762417969        6.1871567483
  H        14.5637948244        6.6454032917        4.6734462991
  C        15.3099904589        5.3218379934        6.0918018437
  H         6.6916714663        7.2850727317        4.1818424300
  H         7.1485641364        7.2141508952        2.4194798793
  C         5.6921048603        5.7290299876        3.1068994371
  N        11.3465479840       -0.6173755651        2.1286765401
  C        12.0235127315       -0.3863033695       -0.0529639384
  C        12.0172239196        1.7291577652       -1.3197106251
  H        11.2669837669        3.4035358069       -0.1502659844
  H        12.4326616356        3.0614243635       18.3250433326
  H        12.7924836943        1.3311753336       18.1386246824
  H        11.2310772955        1.9099515553       17.5690247292
  S         5.9464543287        6.3508933730       18.3907914917
  C         6.3900382101        8.9993210258       18.8386967826
  H        15.0687274198        4.8231425470        7.0177726689
  H        15.6795228258        4.6490518309        5.3436518676
  C        16.4191445818        6.2914016564        6.5176157739
  H         5.3626731969        5.3192081957        4.1086716669
  H         6.0581733533        4.9041196875        2.5046020348
  C         4.4385516892        6.3870731782        2.5154323468
  S        11.7299802339       -2.1268099343        1.5706242751
  N        12.0452316085       -1.7764344014        0.0576568005
  C        12.3232603253        0.2775697292       -1.2637052635
  H        12.2177916569        2.3983627435       -2.1598385197
  C         5.9993111369        7.0708121023       19.9801320022
  N         6.0689054178        8.4381002856       20.0486817433
  O         6.3621926973       10.2162033384       18.5629494528
  H        16.5320468099        7.1279293736        5.7936476686
  H        16.1204912626        6.7621996207        7.3944038234
  C        17.6993322085        5.5868746465        6.9478898002
  H         4.4596987105        6.5266031144        1.4258643381
  H         3.6054972187        5.7063898844        2.8231708551
  C         4.0168360142        7.6610325520        3.2663320573
  C        12.7516856000       -0.5067360985       -2.3987835196
  S         5.6923714875        6.1808617909       21.5408499324
  C         6.2135723797        9.2637239999       21.2371762311
  H        17.8391211111        5.8620455666        7.9940716675
  H        17.5650260293        4.4865430423        7.0032937354
  C        18.8941959300        5.8272883544        6.0509620734
  H         4.4913976292        7.6453074733        4.2304130388
  H         2.9804821949        7.7225295885        3.5326604618
  C         4.5220504432        8.9438137172        2.5638218769
  H        12.9023299679       -1.5154610581       -2.1027439485
  C        13.1065897505       -0.1856180942       -3.7140821439
  H         5.4984948915        8.9896770205       21.9609125597
  H         5.9836519722       10.3216116423       21.0086260070
  C         7.6853954470        9.2120459984       21.8780658792
  H        18.8519356047        6.8920529683        5.7533033492
  H        18.8973787726        5.1655110194        5.1531331272
  C        20.1312727198        5.4977660115        6.8618251271
  H         4.8171782131        9.6939054775        3.2694115044
  H         5.4537853440        8.7147422098        2.0273413349
  C         3.3755002657        9.5810005720        1.6650178053
  S        13.3485882988        1.3079828230       -4.2536701311
  C        13.2808969742       -1.2650134795       -4.6383811262
  H         7.8223420204        9.9605582219       22.6296293558
  H         8.4498998034        9.4127723198       21.0818768529
  H         7.7924085900        8.2178076264       22.3073137355
  H        20.1123219682        4.4891597461        7.1746576842
  H        21.1966102319        5.7047515773        6.4524634840
  H        20.0294611052        6.1015512545        7.7745776705
  H         2.4989282799        8.8981470610        1.5448301761
  H         3.0035767879       10.5259798182        2.1985009976
  H         3.7978630886        9.8974020693        0.7113917469
  C        13.7917806582        0.6227158452       -5.7927268089
  N        13.7534597758       -0.7546599535       -5.8280317704
  O        13.0703870764       -2.4290193038       -4.3088725016
  S        14.3604046166        1.6151667746       -7.1931452943
  C        14.0264618206       -1.4472454232       -7.0565952875
  H        14.5670736897       -2.3357713567       -6.7798951056
  H        14.5903007191       -0.9620011253       -7.8272729113
  C        12.7234763006       -1.7972628368       -7.7307451212
  H        12.2097066015       -2.3769375287       -7.0223142394
  H        12.8895267648       -2.5084624347       -8.5836811071
  H        12.1758149255       -0.9270012060       -8.0184351397
  H        -2.6859570049       14.8785502405       16.8142160100
  C        -3.0595673566       13.8699309780       16.6024623228
  H        -4.1765316441       13.8980208654       16.7829369340
  C        -2.3411597354       13.0617236440       17.6054337585
  C        -2.8547822906       13.3053629111       15.1913587387
  C        -2.2986507509       13.7231513700       18.9909109559
  H        -2.6158882895       12.0264760674       17.6471247396
  H        -1.2666858089       13.1014227053       17.3354779711
  H        -3.0228339192       12.2141980515       15.1591704315
  H        -3.5037366910       13.8821660300       14.5413698604
  H        -1.8149446234       13.2434844267       14.8969580705
  C        -2.6808734703       12.6690760367       20.0589905016
  H        -2.8737908547       14.6067262409       18.9994642730
  H        -1.2813429039       14.1055764519       19.2693593842
  C        -2.4967655564       13.0565311328       21.4707714537
  H        -3.6799213723       12.2997378436       19.9664194716
  H        -1.9883883720       11.7910857401       19.8457385779
  C        -1.2572937974       12.4250593861       22.2056967643
  H        -3.3629919684       12.8056850088       21.9804660467
  H        -2.4653886327       14.1184936935       21.5216373000
  C        -0.1122810664       13.4790855255       22.3731776071
  H        -1.6446502353       12.1548579357       23.1883366308
  H        -0.9177405963       11.5111689083       21.6709950543
  C         1.1004266350       12.9125900240       23.2389635736
  H         0.1501711666       13.5813555107       21.3211646442
  H        -0.4788497377       14.4813344947       22.6016251412
  C         1.5974269486       11.6601329375       22.5876116432
  C         0.6491751630       12.2372078852       24.4292202599
  C         2.2817961752       13.9422895386       23.5546338926
  C         1.2952099569       10.5589038956       23.4291930567
  C         2.2501388906       11.3097030333       21.4139505929
  C         0.7209982306       10.9199618178       24.5729448004
  C         0.1257743979       12.8828696999       25.5582890481
  H         2.5058026554       14.6215957627       22.6963924538
  H         2.0305365954       14.5655519965       24.4040461103
  C         3.5669214413       13.1099856785       23.8753499379
  S         1.6454037267        9.1203048100       22.6062950587
  C         2.3122326522        9.9483620625       21.2044563237
  H         2.5376684884       12.0909121826       20.7933114583
  C         0.1496357425       10.2605573128       25.6402647188
  H        -0.0611653076       13.9165068377       25.6478628573
  C        -0.2208655088       12.2734443202       26.7262783897
  H         3.8854753577       12.4779218351       22.9784425135
  H         3.4559393239       12.3788496248       24.6777388715
  C         4.6974653082       14.0383248065       24.3735054159
  C         2.7230287153        9.2669255254       19.9897109175
  C        -0.2981441609       10.9013928827       26.7913716285
  H         0.2008815407        9.2028819906       25.7197176628
  C        -0.5489102433       12.6748075411       28.0300077174
  H         5.5358115201       13.4664078025       24.7378087476
  H         4.1724684151       14.6315892939       25.1504790698
  C         5.2362589497       14.9270035677       23.2797356311
  C         2.5334648790        7.8427741390       19.7458372742
  C         3.0409234474       10.0871042042       18.7630215122
  C        -0.7629462656       10.2842128951       28.1420229076
  C        -0.9254651785       11.6164957439       28.8598414291
  S        -0.8376236762       14.2401104085       28.7821181359
  H         5.8446123037       15.7658963610       23.6099975592
  H         4.3436314102       15.3253337373       22.8889091685
  C         6.0709206025       14.2013597987       22.2889872205
  N         2.1384719248        6.8522945599       20.6442182646
  C         2.7359716373        7.3022922143       18.4671530766
  C         3.1397791679        9.4863958699       17.5266549240
  H         3.1642043079       11.1987417400       18.8084048016
  C         0.2697108679        9.4049711893       28.9276003181
  C        -2.0596982764        9.5035140374       27.9086853361
  C        -1.4264802155       12.0380907394       30.0857857343
  C        -1.3399028849       13.3796878810       30.2240203321
  H         6.9635952686       14.7658371377       21.9868506986
  H         6.4285163469       13.2366655875       22.7079043517
  C         5.3390515679       13.8576893577       20.9346404338
  S         2.2845342243        5.3786175651       19.9794209018
  N         2.6132480117        5.9091375864       18.5039555607
  C         3.0516033616        8.0104818550       17.3093401341
  H         3.3040831377       10.1441138253       16.6823084915
  H         0.6703435910        8.7173057932       28.1977255219
  H        -0.0966275915        8.7019530782       29.6770638533
  C         1.5359380475       10.0927643637       29.4852429557
  H        -1.7878837072        8.5804929789       27.2626515749
  H        -2.3436968530        9.1001206028       28.8663456731
  C        -3.1978497226       10.4009582592       27.3547107637
  H        -1.7070936183       11.2855659931       30.7851319152
  C        -1.7133773748       14.0424805135       31.5769623020
  H         5.0380093312       14.8578453330       20.6261648354
  H         4.4351983369       13.3471665987       21.0692589824
  C         6.0597598263       13.0249896646       19.8931617982
  C         3.1297012615        7.3193067911       16.0211038234
  H         2.1045601925       10.4538340750       28.6911454260
  H         1.1754527227       10.8902981299       30.1141425211
  C         2.3725558879        9.1269414395       30.3247514430
  H        -3.0667662245       10.5111802547       26.2676931192
  H        -3.1944133656       11.3015698084       27.9189244253
  C        -4.4996646665        9.6171264734       27.5464615091
  C        -1.9242232463       15.3911099483       31.8716082375
  C        -2.0431469862       13.1560423885       32.7312457731
  H         6.7468339567       12.3684494800       20.3433963844
  H         5.2802438984       12.3873734077       19.3912331984
  C         6.9810746865       13.9169264839       19.0298745024
  H         2.8513416177        6.2373371789       16.0842526340
  C         3.5541061458        7.7093952726       14.8213578421
  H         2.5109622193        8.1904599109       29.7394882577
  H         1.7396171573        8.8429001704       31.2051978579
  C         3.6618988518        9.7149566368       30.8293979849
  H        -4.4452127076        8.6830382933       27.0470358297
  H        -4.6730364644        9.3652980429       28.5767856220
  C        -5.8139810648       10.2971491172       26.9663416538
  N        -1.6095656525       16.2909506410       30.9009555169
  C        -2.3237101482       15.9369755236       33.0736904789
  C        -2.4898414511       13.6671148956       33.9871654620
  H        -1.8160293107       12.0793536282       32.7087772924
  H         6.4444068590       14.7675252559       18.7332252768
  H         7.8780437558       14.1424526119       19.5661110297
  H         7.1694716668       13.4315218962       18.1217686128
  S         4.1462941220        9.3131504379       14.3954354486
  C         3.3368783641        6.7464860953       13.7373006321
  H         3.7739523064       10.6683191127       30.3810569336
  H         3.5647341260        9.7251557332       31.8878214605
  C         4.9007184331        8.7651608961       30.5318437148
  H        -5.4066036836       11.1895657894       26.4339196277
  H        -6.5066015369       10.6792441508       27.7708440749
  C        -6.6933252959        9.4783003824       25.9904479350
  S        -1.7489009198       17.8070717423       31.5392966039
  N        -2.4874184223       17.3384002277       32.9113741257
  C        -2.6485877060       15.1071593966       34.2134672697
  H        -2.5952895535       13.0079144189       34.8636837316
  C         4.1191801899        8.6962828316       12.7197317488
  N         3.6078909401        7.4551694909       12.5473369517
  O         3.0376815155        5.5803831040       13.8577156685
  H         5.8324265258        9.2949238164       30.7135636430
  H         4.9558798686        8.4044261503       29.4822865772
  C         4.8734539275        7.6520838533       31.6433342729
  H        -6.0801321877        8.9888925018       25.3022665506
  H        -7.1951919557        8.7334040492       26.5166978369
  C        -7.6079211692       10.3286473623       25.2274718369
  C        -2.9230756917       15.8273959765       35.3859512021
  S         4.6097544978        9.5074189480       11.2852258644
  C         3.5883529397        6.7226720015       11.2469526035
  H         4.7563957041        8.0679241371       32.6569094725
  H         4.0077490357        6.9853022829       31.5981243480
  C         6.1640609365        6.8167277276       31.7423332339
  H        -6.9423230715       10.5724658760       24.4546225413
  H        -7.7209704171       11.2260499897       25.8232939568
  C        -8.8169257662        9.6490894040       24.7741700175
  H        -2.5275849083       16.8000849324       35.4671819697
  C        -3.4769124708       15.4859898373       36.5908505679
  H         4.1081643989        7.1567920787       10.3947510401
  H         4.1848382010        5.8490814217       11.3872515058
  C         2.2268639238        6.1655999839       10.8513875444
  H         5.8094787327        5.9185361444       32.2259666809
  H         6.8815589368        7.3073138222       32.4720431139
  C         6.7847264891        6.2827427914       30.4020848672
  H        -9.3199029847       10.0289189696       23.8068628918
  H        -8.5924185557        8.5334291476       24.7521537009
  C        -9.8371824349        9.8644647166       25.8481374508
  S        -4.1583906596       13.9484334703       37.0191083542
  C        -3.6313620026       16.5683737961       37.5893250804
  H         1.3424481812        6.7590611030       11.1092869178
  H         2.2563558556        5.9281047140        9.7977276141
  H         2.1113068748        5.2753132146       11.4018336266
  H         7.5623181310        5.6358010739       30.6517268046
  H         7.1964366921        7.0552190351       29.8786546894
  H         5.9423989204        5.7709336586       29.8886210463
  H       -10.8404533986        9.3705266976       25.6906909964
  H       -10.0554956722       10.9117977043       26.2185727889
  H        -9.4195357587        9.4853591963       26.7609604949
  C        -4.3693315095       14.7031947742       38.5936017898
  N        -4.2203256557       16.0451405113       38.6501202786
  O        -3.2010136103       17.7595387361       37.4356289480
  S        -5.1119693707       13.9515398207       39.9636197779
  C        -4.3529837973       16.8164424434       39.8564535802
  H        -4.6290142904       17.8556474798       39.4853411396
  H        -5.2074054137       16.5063852343       40.3856293554
  C        -3.1887350755       16.5716761336       40.8545084779
  H        -2.3081960347       15.9955031358       40.4891330148
  H        -2.8313690953       17.5278416419       41.2979655145
  H        -3.4832407869       15.8548663139       41.6164542091
