352
i=
  H         4.9718004047        1.7416820804       12.4511446860
  C         4.2854902604        2.4832739590       12.7412934288
  H         4.7368177713        3.5244861038       12.7505780310
  C         3.2441668789        2.4622255970       11.6345971723
  C         3.6648055316        2.1412628366       14.1025521578
  C         3.8452269237        2.7882274930       10.2463969608
  H         2.4880017850        3.2138147016       11.8230011099
  H         2.7778027121        1.4825744209       11.6705318906
  H         3.6184562427        1.0854386008       14.3357432204
  H         2.6167555327        2.5019141145       14.1574773808
  H         4.3683532723        2.5439348654       14.8282575379
  C         4.4902731275        1.4814184250        9.5947206433
  H         3.1129792502        3.1491355379        9.6398540005
  H         4.4916856076        3.6428202866       10.3618966439
  C         5.1998596773        1.7646078470        8.3356231848
  H         3.8350446253        0.6476701514        9.5141970437
  H         5.1562951783        1.1227048565       10.2758916620
  C         6.5044007921        2.6390260260        8.4084183860
  H         4.4093393405        2.2255940396        7.6876382234
  H         5.5139259529        0.7936959003        7.8905877050
  C         7.7551583789        1.9794122272        8.9969640349
  H         6.8502132719        2.9126091202        7.4609955869
  H         6.2519041852        3.5376958579        8.9162426480
  C         8.9932367617        2.8417998771        9.1859447576
  H         8.0084642472        1.1628490476        8.3529621928
  H         7.4293982100        1.6846473779        9.9605636640
  C         8.6307272500        4.0984739967        9.8933419730
  C         9.4194719210        3.6325866967        7.9773192897
  C        10.0440976663        2.0714460677       10.0366067023
  C         8.7863920838        5.2356861356        9.1153210874
  C         8.0522169501        4.4203783763       11.1360747670
  C         9.3689900195        4.9742228683        7.9003687918
  C         9.8678783140        3.1019791441        6.7717202461
  H         9.5211718827        1.5515841988       10.8501778744
  H        10.4863763398        1.2243934146        9.5104422305
  C        11.2423965022        3.0106516996       10.5175022799
  S         8.4099987851        6.6563651656        9.9153173730
  C         7.8684900932        5.7677400581       11.2266807768
  H         7.8547333186        3.6579964985       11.8445216288
  C         9.8152006486        5.6671626077        6.7728664532
  H         9.7735323143        2.0569557145        6.7326886087
  C        10.3050426400        3.7128866512        5.6564652724
  H        10.8518407307        3.8416411513       10.9990383348
  H        11.7554290824        3.3835478863        9.6899745924
  C        12.3391401624        2.3499500101       11.3299305754
  C         7.3628269334        6.5141903578       12.4396200559
  C        10.3048711501        5.0804879412        5.5885538614
  H         9.5649971157        6.7498104405        6.8328519855
  C        10.6792573985        3.2844365913        4.3883050136
  H        13.2353430629        2.9990849512       11.5203825001
  H        12.6516984538        1.4747697518       10.7330184006
  C        11.8433817191        1.9162030198       12.7512360144
  C         7.3453818618        7.9021280178       12.6909510068
  C         6.9210792081        5.7290605738       13.5695373845
  C        10.6819972120        5.7920491587        4.2802305609
  C        10.8244201343        4.4185825035        3.5609687049
  S        10.7991680552        1.7689211505        3.6442530675
  H        11.0713142581        2.6250501604       13.1152417082
  H        11.4188113023        0.9377193169       12.5811608358
  C        13.0065578943        1.8715943673       13.7333323037
  N         7.7427627838        8.8256616782       11.7666356240
  C         7.0908037410        8.4463531632       13.9213169050
  C         6.6140530177        6.2403467506       14.8499902481
  H         6.7334174523        4.6623648046       13.5175542999
  C        12.0199014031        6.5229257122        4.4418661906
  C         9.5494599094        6.6910025634        3.6969054721
  C        11.1609929236        4.0118647463        2.2851866731
  C        11.2601582845        2.6192475436        2.2412953282
  H        13.4964864344        2.8137291899       13.8094430566
  H        13.8119757409        1.2650544630       13.3008631581
  C        12.6721688663        1.2335701625       15.0104390909
  S         7.6865053777       10.3094237663       12.5158198948
  N         7.0633926518        9.8522136028       13.9060821248
  C         6.7711919546        7.6955572524       15.0501611151
  H         6.4474828010        5.4844942832       15.6237035963
  H        11.8247781255        7.2575442018        5.2120259649
  H        12.1440222855        7.0680184980        3.5099321103
  C        13.2842160350        5.7897267952        4.8493818031
  H         9.0261683599        7.2684692936        4.3650273058
  H         9.8098800313        7.2974986312        2.8295646713
  C         8.4939569935        5.8372991505        3.0720417546
  H        11.3340897364        4.7136129580        1.5116251125
  C        11.6167283644        1.8539758215        1.0218764510
  H        11.8282007394        0.5004706507       14.7783795535
  H        13.5701096796        0.6049791737       15.2773873548
  C        12.2415071670        2.1332067038       16.1184004408
  C         6.6369252589        8.3232024624       16.3209390935
  H        13.1778678815        5.2728358639        5.8233688716
  H        13.4100167253        4.9212463799        4.2155779143
  C        14.5730107050        6.7104302253        4.9174995822
  H         8.0792183524        5.0805202219        3.7167353629
  H         8.9667701451        5.3699334897        2.1966906595
  C         7.2177560830        6.5337568138        2.6642642563
  C        11.5843129928        0.3908561384        0.8177660634
  C        11.8746550903        2.6608026339       -0.2271003143
  H        11.4754533992        1.6045444045       16.6059777487
  H        11.8771155574        3.0789403598       15.6795149398
  C        13.3648683706        2.6131511232       17.1084137170
  H         6.7701554891        9.3825886248       16.2384442872
  C         6.2644928821        7.7865854972       17.5544180739
  H        14.4386280633        7.5433283374        5.7075010515
  H        14.7119310542        7.3153144350        4.0183265306
  C        15.8728338348        5.9265540092        5.2769750579
  H         6.8755542606        7.2200765879        3.4172231686
  H         7.4624509538        7.0655773074        1.7651063344
  C         5.9500728751        5.6760874360        2.4102554077
  N        11.4347583426       -0.5087798784        1.8820764889
  C        11.9657453896       -0.2319119250       -0.3840220522
  C        12.0940896158        2.0144759090       -1.4542605922
  H        11.6424002447        3.6839141294       -0.2549748130
  H        14.2835118026        2.9570070488       16.7321118593
  H        13.5810862737        1.8177651741       17.8369125310
  H        12.9445619289        3.3630014784       17.7843514848
  S         5.9998157426        6.1896593781       18.0814360259
  C         6.2822598230        8.7955232441       18.6457854779
  H        15.9779546205        4.9664415631        4.7825666163
  H        16.7590161906        6.3145570727        4.8120411086
  C        16.1360759548        5.9703574343        6.7824621814
  H         5.4986095219        5.3991034038        3.3766632730
  H         6.3594698143        4.7464552832        1.8701918894
  C         5.0252523448        6.3228698133        1.3275814444
  S        11.5997537202       -2.0178048952        1.2837803187
  N        11.9806762774       -1.6020351585       -0.2347623056
  C        12.2313198156        0.5298355323       -1.5527762532
  H        12.2454871149        2.6590657353       -2.2855993870
  C         5.9231081488        6.8320232346       19.7054533668
  N         6.0810127673        8.1794210421       19.8041633888
  O         6.4075764187       10.0182331346       18.4364545058
  H        16.2331426766        6.9710041958        7.1247855133
  H        15.2474483976        5.6758152044        7.3640345820
  C        17.3706000768        5.1808289887        7.1527016549
  H         5.5250814743        6.6854360840        0.4006042044
  H         4.3645549159        5.5243529134        0.9854664514
  C         4.0971979819        7.3662416709        1.8531134670
  C        12.4607165301       -0.2416492661       -2.6576070625
  S         5.5915442517        5.9792993027       21.1642672948
  C         6.2802073715        8.9201296544       21.0406081197
  H        16.9687487157        4.7550646918        8.0293408497
  H        17.5635761718        4.2355872400        6.5998322114
  C        18.6698330802        5.9823254937        7.5730837484
  H         4.4523287605        7.4077196267        2.8644509508
  H         2.9797643599        7.0962482002        1.9100650974
  C         4.2138709094        8.6858507186        1.0844683198
  H        12.2036377596       -1.2436527974       -2.5475793324
  C        13.0671335955       -0.0399225945       -3.8863272938
  H         5.8692122542        8.5050106111       22.0225735060
  H         5.7889049837        9.9278717902       20.9504310907
  C         7.7387806911        8.9186728205       21.4322445916
  H        19.2576263897        5.1988308508        7.9533133380
  H        18.4551778965        6.7969616137        8.3387860583
  C        19.3626116666        6.5708526268        6.4020895881
  H         5.2690502762        8.8644291051        0.7815004727
  H         3.7307848387        8.5676832191        0.1727736085
  C         3.7932103159        9.8582007526        1.9532930824
  S        13.6239687212        1.4755474866       -4.4906250001
  C        13.1033543237       -1.1570890517       -4.7999309165
  H         7.8515253360        8.0591463872       22.0317950341
  H         7.9200871501        9.6789997646       22.1474868305
  H         8.4246031394        8.8675908331       20.5611304186
  H        19.3730831758        5.7825798579        5.6651523356
  H        18.8687243980        7.4477020905        5.9535140444
  H        20.4404600112        6.7928704820        6.5870893220
  H         2.7477773165        9.5920676601        2.3154489174
  H         4.4920930596        9.8626747181        2.8191862437
  H         3.7360086049       10.8423208089        1.5121606373
  C        13.7965164465        0.6446474203       -6.0316955276
  N        13.6727238451       -0.6724905704       -5.9116776402
  O        12.7697546967       -2.2843375638       -4.5305486686
  S        14.8533517666        1.2728495902       -7.3043230200
  C        13.7559486405       -1.5259108774       -7.0442272242
  H        14.0133011834       -2.5858725286       -6.6860492268
  H        14.5397641548       -1.3358119785       -7.7043592465
  C        12.4805525653       -1.4539706183       -7.8880056302
  H        11.5565937457       -1.0570197662       -7.3614641669
  H        12.1754300311       -2.3906778966       -8.2835705347
  H        12.5898588721       -0.8262071684       -8.8247675925
  H        -3.6715102257       14.6231854430       16.8045708052
  C        -3.2383028502       13.6550464695       16.6696835256
  H        -4.0340352829       13.1041529819       17.1454969830
  C        -1.8470138913       13.6190136551       17.4192279642
  C        -3.0353678235       13.3445424697       15.1195959302
  C        -2.0283659358       14.0459118517       18.8775669719
  H        -1.5772953124       12.5559881016       17.4190111311
  H        -1.1258459003       14.1797179992       16.9123771972
  H        -2.2458694726       12.6421631556       14.9363962896
  H        -3.9867300732       13.1046811379       14.6781363728
  H        -2.6488166474       14.1684916411       14.6515430237
  C        -2.1007661405       12.8982558476       19.8264681602
  H        -2.9665555609       14.5497311124       18.8506834400
  H        -1.1916598429       14.6880306029       19.2629354880
  C        -2.6852709254       13.1794053205       21.2495180083
  H        -2.8396549225       12.1940355477       19.3680967064
  H        -1.1306066979       12.4021830970       19.8667556209
  C        -1.7889668538       12.8722846819       22.4036134905
  H        -3.6637191912       12.7562533542       21.3752271439
  H        -2.7656870956       14.2659658447       21.1982725649
  C        -0.5208224747       13.7052757082       22.5407504062
  H        -2.4304434396       13.0033336232       23.2551896691
  H        -1.5403612588       11.8253942555       22.3924348596
  C         0.6107599816       12.9096216196       23.2594502295
  H        -0.2148286506       14.0065876477       21.5678236251
  H        -0.6609812736       14.5947158836       23.0283273223
  C         1.0085346712       11.5962903984       22.6735892378
  C         0.2114348738       12.2748049738       24.5231290543
  C         1.8452635621       13.8332940310       23.3687836526
  C         0.9271665307       10.5408346138       23.5006125876
  C         1.4571357804       11.2082044498       21.4231745892
  C         0.4358165792       10.9472990263       24.7083004226
  C        -0.2211618443       12.9831680187       25.6729277773
  H         2.2011101940       14.2450952114       22.3921495190
  H         1.7838162282       14.7781018651       23.9041380203
  C         3.1024176393       13.1591659031       23.9345303063
  S         1.4411217832        9.0621330270       22.8606256232
  C         1.7570126623        9.8470133312       21.3871371985
  H         1.5563094559       11.9263698141       20.6646800644
  C         0.0869508001       10.3189782419       25.8659381664
  H        -0.1984617355       14.0487020397       25.6243349607
  C        -0.4949584766       12.3212239250       26.8440963257
  H         3.2584017607       12.2566414930       23.4637269647
  H         2.9170294985       12.8517618160       24.9322260645
  C         4.4907825118       13.8153561192       23.8209102992
  C         2.1547459413        9.1270144635       20.1127616668
  C        -0.3571615297       10.9864134091       27.0092596017
  H         0.2881247790        9.1962410016       26.0170973283
  C        -0.8196405765       12.7298277102       28.1068483439
  H         5.2030123464       13.1740282735       24.2887684933
  H         4.5105806034       14.7887849038       24.3665914294
  C         4.8774203075       13.9596492404       22.3283848097
  C         2.0699615936        7.6985981537       19.9626552952
  C         2.7393635184        9.9090548148       19.0084290350
  C        -0.7488592220       10.3365301359       28.3204409079
  C        -0.9617157366       11.7024719120       28.9785826466
  S        -1.0413183777       14.2443345216       28.7381193283
  H         5.2685969723       14.9654462366       22.1313380114
  H         4.1283257743       13.7171956605       21.5631967898
  C         5.9338217888       13.0360110078       21.8532104104
  N         1.8407163888        6.8259537844       20.9352757848
  C         2.3845742979        7.1567335500       18.7362405124
  C         3.1144927979        9.3056965651       17.8433521363
  H         2.9376120850       10.9440980465       18.9981583362
  C         0.3007782062        9.4467843910       29.0142454584
  C        -2.1997970989        9.6467488789       28.1199820961
  C        -1.3015885004       12.1550274336       30.2954677961
  C        -1.3011426132       13.5362348872       30.2716826339
  H         6.8741753377       13.2318360111       22.3384099856
  H         5.6645097601       11.9437160195       22.0235571322
  C         6.1134927503       13.1263132747       20.3477981212
  S         1.9181620924        5.2837034632       20.3085701197
  N         2.2134790326        5.7765465877       18.7929169483
  C         2.8745632492        7.8552401449       17.6069725906
  H         3.2922225421        9.9732273155       17.0331457982
  H         0.3860949216        8.7245851631       28.1899456170
  H        -0.1938642803        9.0417985471       29.9678787761
  C         1.5892900488       10.2041479180       29.2607295310
  H        -2.1406152642        8.7134103445       27.6554241908
  H        -2.5825732813        9.3251482413       29.1145031853
  C        -3.2810850108       10.4444318370       27.5047927692
  H        -1.3720212624       11.4592879122       31.1172274981
  C        -1.5843905290       14.3114149604       31.5391862336
  H         5.8029141550       14.1288588032       19.9842452095
  H         5.4390093624       12.5179986396       19.7665429526
  C         7.6038746105       12.8314882188       19.9471475875
  C         3.1462515592        7.1942326154       16.3988463003
  H         1.8947361803       10.7939461986       28.3857484756
  H         1.4340979398       11.0343224453       29.9421928126
  C         2.7989044081        9.3965563045       29.7086615933
  H        -3.0157523824       10.6269421833       26.4951633816
  H        -3.3627999290       11.4876309597       27.8900893200
  C        -4.6228971124        9.7507825819       27.6772718961
  C        -1.5597649094       15.6966338644       31.6341321605
  C        -1.8321657344       13.6162745409       32.8189887211
  H         8.1875120637       13.5635771884       20.4770580596
  H         7.9888302440       11.8233329102       20.1792583236
  C         7.7340599230       13.0367191269       18.4311639503
  H         3.2151171756        6.1006829677       16.5295392739
  C         3.4151198283        7.6182789076       15.0866043120
  H         3.2550682385        9.0635404480       28.7981454438
  H         2.3927607542        8.6139882604       30.2651692655
  C         3.7053339444       10.1636125287       30.6782825287
  H        -4.6886924926        8.7719999446       27.1952775499
  H        -4.7800494291        9.4708189369       28.7109210733
  C        -5.8555112554       10.5995949929       27.2920420938
  N        -1.1908864056       16.5785279384       30.6256441680
  C        -1.9480890025       16.4188161316       32.7422094500
  C        -2.2595524694       14.2922150976       33.9663663536
  H        -1.7283211887       12.5029518500       32.8849202858
  H         7.3496301174       14.0197159021       18.1891777036
  H         8.7446058663       12.9630563491       18.1772612020
  H         7.0841858151       12.3041246255       17.9564389281
  S         3.6217345112        9.2157714232       14.5515098438
  C         3.4485950324        6.6183812033       14.0135998473
  H         3.9093886331       11.1733927297       30.2035526258
  H         3.1882656943       10.3805785817       31.6149697017
  C         5.0769826008        9.5021956840       30.9590488010
  H        -5.5522946694       11.5002257835       26.7562271778
  H        -6.2813013260       10.9931804861       28.2298801288
  C        -6.9683540777        9.8141225016       26.5798089150
  S        -1.6139736511       18.0956402381       31.0192147234
  N        -2.0165513024       17.7782956019       32.5609662308
  C        -2.3367904377       15.7527614516       33.9372851290
  H        -2.4827814693       13.7865402423       34.8449753888
  C         3.8360437511        8.5574894994       12.9158634240
  N         3.7077101631        7.2358734918       12.8297357622
  O         3.1933678974        5.4248783113       14.1279383916
  H         5.5052807757        9.9461384538       31.8694635047
  H         5.8258499473        9.7214038221       30.2230652265
  C         4.9744283886        7.9531140589       31.1764347283
  H        -6.6173015417        9.0224799891       26.0281332890
  H        -7.6568218680        9.2733732693       27.2939591352
  C        -7.6004141634       10.6915729032       25.6177091128
  C        -2.4638324489       16.5451730172       35.1679669211
  S         4.3667777424        9.4828533658       11.4670749961
  C         3.6530295784        6.3980837175       11.6301833849
  H         4.2778953370        7.8339096884       32.0483323863
  H         4.5295141705        7.3837990143       30.3598665280
  C         6.3441198495        7.3227498774       31.4302924839
  H        -6.9987411111       11.0419488544       24.8427635763
  H        -8.0376457180       11.6600990517       26.0688405209
  C        -8.7041666837       10.0360591940       24.8124803441
  H        -1.9427485164       17.5640499439       35.0891122450
  C        -3.0252475450       16.2806947649       36.3878754989
  H         4.5083048513        6.5540873644       11.0026809421
  H         3.7741739542        5.3342809386       11.8964096734
  C         2.4770530828        6.6994741853       10.7163565110
  H         6.4284556444        6.5703075738       32.2223407475
  H         6.9509753786        8.1839700616       31.7825785562
  C         6.8490023278        6.7226525531       30.0998356739
  H        -8.6865820183       10.4257402863       23.8319372623
  H        -8.5567387171        8.9723730669       24.6533982887
  C       -10.0706784596       10.1758869848       25.5782145374
  S        -3.7601284580       14.8216190966       36.8831191075
  C        -3.1693171616       17.4013105921       37.3275862067
  H         2.6244254192        7.7108226405       10.3864536231
  H         2.5921242322        6.0362215709        9.8045588588
  H         1.4382363143        6.5394007805       10.9650958265
  H         7.8994963914        6.4582225248       30.2542555107
  H         6.7987906470        7.4596606343       29.2527644725
  H         6.2047176893        5.8682892680       29.7131237959
  H       -10.0016377462        9.6371779250       26.5586377470
  H       -10.7466071220        9.6089614363       24.9158208516
  H       -10.3805827447       11.2255832151       25.7054160947
  C        -4.0866489688       15.6747608692       38.3993470597
  N        -3.8733519133       16.9628789438       38.3779207894
  O        -2.7092170486       18.4901357088       37.1533837035
  S        -4.8914281231       14.9569218302       39.8043292371
  C        -3.9550777622       17.8456323641       39.5695376452
  H        -3.9460240334       18.9064752705       39.2538369447
  H        -4.8858231673       17.7861109937       40.1439766170
  C        -2.7736176370       17.6266097488       40.5173896192
  H        -1.8201499537       17.4417385571       39.9964194909
  H        -2.5804438057       18.5467393301       41.1589291726
  H        -2.9478959512       16.7552433063       41.1547496933
