352
i=
  H         2.4214729856        2.0356591752       13.7168573464
  C         3.3656993963        2.4456433321       13.2989796465
  H         4.1350760292        1.7226097696       13.0053078499
  C         3.0294672882        3.3022309834       12.0878778434
  C         4.0396988410        3.0540231722       14.5575757158
  C         4.2941148431        3.4897633092       11.2356085084
  H         2.5619563242        4.2415838964       12.3200626127
  H         2.2851451682        2.8621530636       11.4817148729
  H         4.3648168449        2.3029402130       15.3150833528
  H         3.3426764552        3.7726716700       14.9495740978
  H         4.9797925960        3.5531725233       14.3656377188
  C         4.7598705116        2.1694696254       10.5858005714
  H         4.0776753845        4.2938800334       10.4389617990
  H         5.0254748247        3.8568602409       11.9232898650
  C         5.3113602323        2.4204002208        9.1675055763
  H         3.8819871768        1.4554271263       10.5412377545
  H         5.5793699263        1.7250009061       11.2416999665
  C         6.6364202655        3.1590270175        9.0726386699
  H         4.5036264121        2.9083978333        8.5057222355
  H         5.4124379829        1.4547176461        8.7627893164
  C         7.8216216924        2.1935722977        9.3161018182
  H         6.6012909804        3.5457374056        8.0420999542
  H         6.5631718439        3.9966824740        9.7306193848
  C         9.1715733105        2.9081940671        9.4385331123
  H         7.7884992110        1.5490976386        8.4899084055
  H         7.7370216482        1.5309223688       10.2277963598
  C         8.9635727872        4.2682652221       10.1127776208
  C         9.5180280151        3.7033730489        8.1360918263
  C        10.2642789617        2.0427832536       10.0835591068
  C         8.9877914831        5.3746265710        9.3039481904
  C         8.5750573892        4.6679873899       11.4134137609
  C         9.5147928569        5.0386946639        8.0243604165
  C         9.9874016464        3.0982245084        7.0066424245
  H        10.0521025370        1.6055039666       11.0542507825
  H        10.4173891180        1.0826370008        9.4614820439
  C        11.5857591794        2.7899647744       10.1614681124
  S         8.6561419947        6.8631386882       10.0349095174
  C         8.2804195814        6.0161100231       11.5380450352
  H         8.5054092891        3.8971988037       12.1816627146
  C         9.8300514104        5.6630257803        6.8623098249
  H         9.8655164767        2.0548249103        7.0481176860
  C        10.3015310601        3.7438615856        5.8679779040
  H        11.4789227072        3.9000656588       10.3352260534
  H        12.0638288248        2.5667259990        9.2429013786
  C        12.5933064267        2.2148161149       11.1744075765
  C         7.9224652815        6.6314274167       12.8893254903
  C        10.2487471119        5.0746734302        5.7275091863
  H         9.8002712833        6.7291742625        6.7654474569
  C        10.7913566756        3.3179187949        4.6404658374
  H        13.5727859144        2.5091593449       10.9473465580
  H        12.4743706240        1.1179304925       11.0946659645
  C        12.2570476130        2.7169674520       12.6139859629
  C         7.8942285557        8.0544471614       13.1221803958
  C         7.5768821548        5.7459784262       14.1211590135
  C        10.7460349777        5.6921228251        4.4832015551
  C        10.9730642969        4.3603194176        3.7900838751
  S        11.1422840348        1.8530663664        3.8849450850
  H        12.4566955283        3.7326461812       12.5055646537
  H        11.1939416970        2.5855902552       12.8751810864
  C        13.1581296426        2.0699329137       13.6300138801
  N         8.2674796480        9.0464680019       12.2287374831
  C         7.6744682492        8.5723695230       14.4136616963
  C         7.2038708172        6.3625882585       15.3160781727
  H         7.3904172291        4.6810269533       14.0045138535
  C        12.1041416467        6.3256764310        4.8990976342
  C         9.6795885065        6.5741113768        3.7384283270
  C        11.3702979781        3.9972010554        2.5311320087
  C        11.5368381118        2.6544317098        2.4375303775
  H        14.1583963250        2.5520152084       13.6289270802
  H        13.2093906139        1.0229795825       13.4217046988
  C        12.5888282990        2.4499759859       15.0093813725
  S         8.3179040315       10.4572973545       13.0329642742
  N         7.9234035856        9.9293664633       14.5101649032
  C         7.2859941969        7.8416044703       15.5166168353
  H         6.7159396023        5.7200879450       16.0205827683
  H        11.9620212087        6.7699313851        5.8737456488
  H        12.1816394961        7.1085447664        4.1985296531
  C        13.3253649792        5.4216976078        4.9685493937
  H         9.6882978389        7.5400084975        4.2735916929
  H        10.0940697119        6.7934053247        2.7556691340
  C         8.3593603967        5.9612751633        3.5230261949
  H        11.4803769264        4.6907551335        1.7695545817
  C        11.7796822767        1.9166712911        1.1360478263
  H        12.2433855700        3.4633458827       14.9532217599
  H        11.7890518996        1.7401333268       15.2329600371
  C        13.5673260726        2.4482317053       16.1706661675
  C         7.1280011630        8.4661050376       16.7754687941
  H        13.1152838588        4.7135384775        5.8839251444
  H        13.3793831447        4.9206756087        3.9866701149
  C        14.6841361798        6.1110960574        5.1214644959
  H         7.6137494762        6.3428196584        4.2649156023
  H         8.4503208103        4.9611304117        3.7774833243
  C         7.9117551412        6.2454056614        2.0638719040
  C        11.8088266318        0.4443950211        1.0189461489
  C        11.8913657259        2.6052107042       -0.1874133740
  H        14.2237299102        3.3197195766       16.1730102167
  H        14.2780057246        1.6212520705       16.1532648871
  C        12.8819310119        2.3174792239       17.5513134508
  H         7.4928413262        9.5194972774       16.8609464266
  C         6.7659621499        7.9754754202       18.0660351613
  H        14.4936901506        6.4599898651        6.1479125355
  H        14.8654857356        6.9479257617        4.4367814349
  C        15.8656272059        5.1187026609        5.1055152428
  H         7.9637447430        7.3633689446        1.8584745543
  H         8.5459413619        5.7897532800        1.3627251038
  C         6.4961231727        5.8307870097        1.6306783725
  N        11.5047234396       -0.4334803861        2.0203771769
  C        12.0017076380       -0.2182952488       -0.1690087160
  C        12.1069297597        1.8987618544       -1.3537617929
  H        11.9659896954        3.6949136156       -0.3134263254
  H        11.9287815888        2.8517223910       17.6543969241
  H        13.5952411770        2.7333268359       18.2932853847
  H        12.7811452342        1.2676227201       17.7343682737
  S         6.2098639747        6.3859131349       18.4557239876
  C         6.6467465446        8.9200267476       19.1480413588
  H        15.9907545387        4.6236224808        6.0583723134
  H        15.5222391177        4.2697127740        4.4485141304
  C        17.1143644277        5.9082594335        4.6344166746
  H         6.2799640162        4.7945813955        1.9047044769
  H         6.3809449316        5.8701017377        0.5734422703
  C         5.3275138776        6.6317959262        2.0941527682
  S        11.5526752961       -1.9766407584        1.4446597857
  N        12.0740254118       -1.6054711417        0.0181437568
  C        12.2324348308        0.4162448559       -1.3958112120
  H        12.0827235227        2.4137248835       -2.2973018485
  C         5.9257504369        7.0087423839       20.0876973022
  N         6.1273837088        8.3436708536       20.2726896260
  O         6.8810314012       10.1108172367       19.1308763206
  H        17.3038084229        5.8326182498        3.5323697013
  H        16.9740715991        6.9575204847        4.6343492061
  C        18.3477123279        5.5012748139        5.4632455483
  H         4.4625159731        5.9148632151        2.1074726757
  H         5.3469903163        7.0503638816        3.0834697523
  C         4.8263346807        7.6622291637        1.0949347222
  C        12.4667725158       -0.3209794425       -2.5727622814
  S         5.3645448985        6.0402157199       21.4698709191
  C         5.9913689188        9.0351090855       21.4570780788
  H        18.2359915435        4.4794217738        5.8417921601
  H        19.2518097131        5.5407225328        4.8792310576
  C        18.5374888017        6.3505616102        6.6263013709
  H         4.0694811339        7.2424263989        0.4077286717
  H         5.5918538997        7.8033963300        0.3620179196
  C         4.3734038050        9.0536139358        1.6620297496
  H        12.1002379545       -1.2925647687       -2.6345528895
  C        13.0184722046       -0.0287119856       -3.7993129499
  H         5.2969175581        8.6482860476       22.1359080689
  H         5.7030570851       10.1121718258       21.3231947446
  C         7.3985553100        9.1338375200       22.1894270113
  H        17.6709731437        6.7411746459        7.0335844502
  H        19.0611764676        7.2154473368        6.2592371820
  C        19.3092264914        5.6615572038        7.7052976908
  H         3.2895873836        9.0620345449        1.8095662987
  H         4.8044413797        9.1559081944        2.6232703323
  C         4.7093584771       10.2297117706        0.6612846778
  S        13.7613566646        1.4923857752       -4.1997505388
  C        13.1009271646       -1.0568526859       -4.8463516465
  H         7.4552331441        8.5206127234       23.1049666354
  H         7.7142158620       10.1132041690       22.4856145656
  H         8.1746997422        8.8137181527       21.5332602522
  H        18.7591199597        5.0874704876        8.4274185244
  H        20.0259975362        4.9280926907        7.3960516986
  H        19.8354377676        6.4306530028        8.2678081386
  H         4.4892130083        9.8186241465       -0.3364597754
  H         4.1246174317       11.1298476554        0.8137443327
  H         5.7847460521       10.2782675820        0.6350922742
  C        13.9238748898        0.8250249499       -5.8376757691
  N        13.7140105160       -0.5063335569       -5.9464281204
  O        12.6869587730       -2.1811450416       -4.7220789974
  S        14.6831915639        1.6660167494       -7.2351578533
  C        13.8340049568       -1.2731588026       -7.1364930615
  H        13.9036178947       -2.3419577574       -6.8682397663
  H        14.7065994290       -0.9901571755       -7.7457217000
  C        12.5838601566       -1.0979312274       -7.9614818439
  H        12.6667600692       -0.2395824819       -8.5994820765
  H        11.6856696199       -0.8647174642       -7.4353525829
  H        12.4477155081       -1.9053875663       -8.6737552548
  H        -2.9548246047       15.5620817535       16.0349816687
  C        -3.2460074459       14.6842994263       16.5307792084
  H        -4.1060938420       14.8556685512       17.1303890036
  C        -2.0252113177       14.0670730555       17.3790703699
  C        -3.8278184346       13.6156231150       15.5814662911
  C        -2.4941269827       13.7757143773       18.7772470209
  H        -1.6234802516       13.0576935939       17.0181621059
  H        -1.1092079465       14.7420961510       17.4430946554
  H        -3.1384711737       13.3586779081       14.7886091952
  H        -4.1931105276       12.7062712658       16.0322083487
  H        -4.7217256085       13.9144875303       15.0655585345
  C        -1.3226768971       13.5076842536       19.6931688244
  H        -3.2324438571       13.0947574418       18.8510132953
  H        -2.8475213827       14.7090179962       19.1773570781
  C        -1.6144399588       13.5364695925       21.1641197318
  H        -0.8894463473       12.4939993340       19.4833976927
  H        -0.5157177261       14.2306680801       19.4190617800
  C        -0.5342432325       12.9410261676       22.0778285172
  H        -2.5638108918       12.9827720591       21.3347581261
  H        -1.7707848730       14.6022522252       21.4838863483
  C         0.5982875927       13.8904392744       22.4135411449
  H        -1.0583091084       12.5857992159       22.9898689858
  H        -0.0922016289       12.1541931847       21.5762035664
  C         1.7121291332       13.3272291842       23.3273862640
  H         1.0237343971       14.3099109027       21.5215797436
  H         0.2185521008       14.7793930851       22.9512285622
  C         2.1730068640       11.9527150964       22.7718121030
  C         1.2124065277       12.5800806685       24.5687734825
  C         2.8914995648       14.3050110380       23.4245194856
  C         1.8289120873       10.8433119844       23.5239999387
  C         2.7743427237       11.5496584416       21.5280758281
  C         1.2241605956       11.2158475254       24.6770930295
  C         0.6529856910       13.1561551664       25.7265285077
  H         3.0806512481       14.6975823310       22.4530597672
  H         2.5157841744       15.1780702896       23.9460763676
  C         4.1870687847       13.7668661257       24.0823338468
  S         2.0091723657        9.3452716089       22.7362152978
  C         2.6128547492       10.2160608012       21.3488064490
  H         2.9668396196       12.2765682922       20.7605461020
  C         0.7615526597       10.5144941853       25.7648446198
  H         0.5915674056       14.2722822378       25.7086307114
  C         0.2027008473       12.4691412795       26.8301454725
  H         4.6368504239       12.8534942194       23.6679424971
  H         3.9762159688       13.5133604608       25.1210511885
  C         5.2408963372       14.9166456490       24.1556641679
  C         3.0019729679        9.5589601373       20.0357905813
  C         0.2100359863       11.1253901648       26.9015440803
  H         1.0462291433        9.5049237468       25.8182988627
  C        -0.2651188394       12.8460550660       28.1279403459
  H         5.8519156780       14.9047168649       25.0958107599
  H         4.7777659594       15.8425985997       24.3482049661
  C         5.9918362778       15.1113976741       22.8887057375
  C         2.8560066192        8.1729891570       19.7002334752
  C         3.5314787988       10.3954305889       18.9683982043
  C        -0.2042990319       10.4289951186       28.1565467620
  C        -0.5064686471       11.7289688432       28.8872885136
  S        -0.5109941871       14.2570964899       28.9624254450
  H         6.6098704237       16.0177887365       22.9232327919
  H         5.3216521889       15.2191597349       22.0094000651
  C         6.9967635908       13.9562817398       22.5796367994
  N         2.3181102900        7.1874066817       20.5631259053
  C         2.9904465470        7.6558775323       18.3928198398
  C         3.7037471733        9.9260580953       17.6201046142
  H         3.8381773655       11.3958605590       19.0895260212
  C         1.0185947965        9.6483499017       28.6949983268
  C        -1.4220099058        9.5305889966       28.0827318207
  C        -0.8860709368       12.0993307813       30.2218471171
  C        -0.9942190013       13.4818115437       30.3225370114
  H         8.0046023655       14.4119067399       22.6534234450
  H         7.0100019145       13.2532775397       23.4207114806
  C         6.8797996584       13.3166676364       21.2092985254
  S         2.2126075154        5.7587569488       19.7699815784
  N         2.8110215385        6.2684092175       18.3122145349
  C         3.3504188989        8.4574199022       17.2936531558
  H         4.0612203184       10.5631951716       16.8219532540
  H         1.4712407775        9.0308769847       27.9689574656
  H         0.6180703702        8.9608284937       29.4161329398
  C         2.0387574109       10.4991709400       29.3817983121
  H        -1.2793204140        8.6041068136       27.4683216019
  H        -1.6258415589        9.1169066937       29.0820958772
  C        -2.7192107924       10.2000779512       27.6234930902
  H        -0.9990839385       11.3698175429       31.0415399917
  C        -1.3332716856       14.1815977238       31.5938232644
  H         5.9008841172       13.3362499617       20.8317808904
  H         7.0590837835       12.2045865620       21.2368196555
  C         7.7977837962       13.9542900321       20.2050272662
  C         3.5487170266        7.8618553553       16.0500139578
  H         2.2899280608       11.3077242429       28.7495416741
  H         1.6891499225       10.9063752406       30.3323768642
  C         3.3105827458        9.8268310975       29.6401372617
  H        -2.6354308116       10.7720505167       26.7337398182
  H        -2.9938340197       10.9314152742       28.3200171178
  C        -3.8829985481        9.2328065246       27.3272619924
  C        -1.3465345209       15.5356709218       31.8684427563
  C        -1.7200683062       13.3478332391       32.7349563268
  H         7.6708012378       15.0241346860       20.1903876490
  H         8.8456910542       13.6383599102       20.4466271919
  C         7.4038627069       13.5473660534       18.7881856857
  H         3.3143726152        6.8552558179       15.9311861058
  C         3.8913043820        8.3075081823       14.7762579448
  H         3.6198257101        9.2969206783       28.7188908677
  H         3.0931557243        9.1107344034       30.3888035438
  C         4.3350216257       10.6553339678       30.4419014856
  H        -3.5593505157        8.6656508864       26.4627600329
  H        -4.0456498316        8.5803329303       28.1278350677
  C        -5.2204962176        9.9582345768       27.1042028382
  N        -1.1384991316       16.5236730385       30.8526756766
  C        -1.7242972284       16.1259498294       33.0874642587
  C        -1.9370129287       13.8431137692       33.9851685589
  H        -1.6987349219       12.2661644210       32.7175960876
  H         6.3473956372       13.4156810135       18.6435579856
  H         7.7849721778       14.3500966132       18.0888287936
  H         7.8124568691       12.6137450454       18.3569359122
  S         4.1723432947        9.9465772618       14.2744224439
  C         4.0283182070        7.3035532745       13.6957029235
  H         4.2813733066       11.5856683579       29.8959995240
  H         4.0130302305       10.9106409090       31.4763461511
  C         5.7744610404       10.1581919053       30.4326754540
  H        -5.3415277846       10.8666672089       27.6995750807
  H        -5.8870919975        9.3067332617       27.6342267711
  C        -5.7087230289       10.1973868335       25.6583562560
  S        -1.2608875242       17.9524996896       31.6029384509
  N        -1.7420826314       17.4961297112       33.0663283242
  C        -2.0383413321       15.3408776662       34.1935091613
  H        -1.9972799450       13.1582709082       34.8344709217
  C         4.3354885277        9.3038530001       12.6868635208
  N         4.4007901855        7.9624107253       12.5656462470
  O         3.9840815454        6.0497713426       13.8781858181
  H         6.4599466876       10.8258666236       30.9665261624
  H         6.0649474876       10.2338122002       29.3381899571
  C         5.8722895476        8.8453116186       31.1410059027
  H        -4.9986891845       10.8951389270       25.1534222648
  H        -5.7039809852        9.2771473168       25.0656339142
  C        -7.1331191833       10.7689630051       25.6051351735
  C        -2.3790383414       15.9074661282       35.4823785730
  S         4.6986292523       10.3473398702       11.2567978407
  C         4.6440280880        7.2337166032       11.3245393417
  H         6.2695183271        9.0104632346       32.1570242907
  H         4.8602439070        8.5664937635       31.3728959644
  C         6.6674346004        7.8435529843       30.3704456433
  H        -7.2986211707       11.1141789139       24.6044115180
  H        -7.2254262104       11.6122741728       26.2968555029
  C        -8.2018597805        9.6746885214       25.9028154996
  H        -1.9374487484       16.9578814012       35.6035012369
  C        -2.9129884058       15.4025208512       36.6469872380
  H         5.4288688276        7.5439044193       10.6211977095
  H         4.8620497615        6.2440809457       11.6546568471
  C         3.3223415372        7.1655075497       10.5609128056
  H         7.6495445102        8.2229192020       30.1670400278
  H         6.3302938313        7.7535450725       29.3022367079
  C         6.9176450533        6.4881107545       31.1492653871
  H        -8.2859623243        9.0084276975       25.0482257232
  H        -7.9474808925        9.1156311705       26.8211627658
  C        -9.5329951045       10.3346515457       26.1464036785
  S        -3.3936854219       13.7768065506       36.9194485366
  C        -3.1548613770       16.3156181416       37.7651549938
  H         3.1001135629        8.0505757522        9.9387771983
  H         3.4083326695        6.3971021330        9.8171085193
  H         2.4949502787        7.0527512254       11.2651377674
  H         7.8807141484        6.3862923397       31.6659174947
  H         6.7297465641        5.7035927111       30.4520249865
  H         6.2024276237        6.3463545725       31.9668159958
  H       -10.1435092967       10.3193884474       25.2013414749
  H        -9.4696160022       11.3417858691       26.4983356560
  H       -10.1266299065        9.7417620324       26.7650552449
  C        -3.9124304415       14.2907471366       38.5059606323
  N        -3.8609389078       15.6481074855       38.7383361944
  O        -2.8938812245       17.4909665703       37.7793358514
  S        -4.8570139455       13.2890407059       39.6339191480
  C        -4.1379855048       16.4075468387       39.9629657772
  H        -4.4158591323       17.3964493845       39.8606355041
  H        -4.9403106717       15.8479139029       40.4599146089
  C        -2.8666686506       16.3669068274       40.8099648516
  H        -2.4363147282       17.4075541787       40.9353597105
  H        -2.9988426572       15.9735667740       41.8377363702
  H        -2.0546078888       15.7213819609       40.5126401316
