352
i=
  H         5.0282034548        1.0015238393       13.1271204544
  C         4.4146345559        1.9246438738       13.1043191876
  H         5.1194700146        2.7207005058       13.2824906958
  C         3.4978287412        2.0702816194       11.7598651005
  C         3.4559259350        1.7732684193       14.3608313160
  C         4.3237184658        2.1981818229       10.5711692851
  H         2.9734033894        2.9824881691       11.8130836820
  H         2.8726377946        1.1893051986       11.7466484538
  H         3.0301352219        2.7504464932       14.5271811837
  H         4.0786352200        1.4349551800       15.1798077916
  H         2.6326172634        1.1108518212       14.0944414388
  C         4.6494017623        0.8499164377        9.9808765693
  H         3.7677258595        2.7575501988        9.8619088234
  H         5.2369133932        2.7836920284       10.8748095803
  C         5.2733120204        0.9889666825        8.5973263148
  H         3.6590971073        0.3831186411        9.9365420332
  H         5.2986743425        0.3519863190       10.6400384458
  C         6.4277726872        1.9372329397        8.4347257541
  H         4.4676433572        1.3286310787        7.9459926628
  H         5.3685097405        0.0581736585        8.0704913704
  C         7.7122925403        1.5978543514        9.1423370311
  H         6.6463084487        2.0098472063        7.3375897736
  H         6.0649759087        2.9754984462        8.7814814631
  C         8.8375783627        2.6676636168        9.2110047992
  H         8.0608745514        0.6349405887        8.7772613971
  H         7.4905379877        1.3018332042       10.2488442409
  C         8.3909970698        3.9952633963        9.9044935709
  C         9.2457862827        3.3433036873        7.9528053653
  C        10.0465061504        2.0148205697        9.8920797156
  C         8.5902651914        5.0772679977        9.0577852787
  C         7.8612749058        4.3495628802       11.1660234330
  C         9.1624588238        4.6986380379        7.8689822861
  C         9.7978786151        2.7294653995        6.7955244924
  H         9.6922658583        1.7779846457       10.8764009227
  H        10.4074578112        1.1839871948        9.3040372898
  C        11.2071362064        2.9962413510       10.1868345358
  S         8.0563011172        6.5654083723        9.8057819294
  C         7.6377598946        5.7027824749       11.2134551506
  H         7.7179813120        3.5765452469       11.9699208116
  C         9.5796105199        5.3140867710        6.7545821559
  H         9.7422607752        1.6543495405        6.8067302342
  C        10.1032863433        3.3646392979        5.6101870001
  H        10.8754603912        3.9554239205       10.5144113558
  H        11.7219149576        3.1391140401        9.2630935268
  C        12.0030365157        2.3312194694       11.3555378960
  C         7.2877490467        6.4436447474       12.4390167286
  C        10.0377576214        4.7003432013        5.5841770577
  H         9.4969138789        6.4131348798        6.8370418185
  C        10.5447857138        2.9740737634        4.3815503691
  H        13.0074521664        2.3250294586       11.0553584273
  H        11.8210257097        1.2509753164       11.3538117575
  C        11.6414706333        2.9028470221       12.7091710100
  C         7.3054881432        7.8099990942       12.6278363255
  C         6.8830379589        5.6489062504       13.6276736928
  C        10.3966938751        5.3732463448        4.3048787241
  C        10.7228009891        4.0614308153        3.5679318153
  S        10.7102504684        1.4363740429        3.6883135458
  H        12.1240362212        3.8283150291       12.8358274611
  H        10.5893995642        3.0739981687       12.7891235608
  C        12.1377218380        1.9365473558       13.7937070526
  N         7.4564956446        8.7804033361       11.6275646530
  C         7.1884236275        8.4794154241       13.8665643817
  C         6.6529523576        6.2452953087       14.9037698013
  H         6.6542172181        4.5804693685       13.5710340952
  C        11.6415815219        6.2545097068        4.4286988129
  C         9.1813070216        6.1997890232        3.7982269547
  C        11.0494657607        3.6810572187        2.2314408453
  C        11.1201014889        2.3457644936        2.1607505158
  H        12.9981247807        1.4374383465       13.4069440402
  H        11.5371235598        1.0872214812       13.8839579998
  C        12.4892287005        2.6430265927       15.0908597668
  S         7.6827373246       10.2601883318       12.2870785143
  N         7.4013562955        9.8414903172       13.8459212693
  C         6.8658373016        7.7289811193       15.0869245952
  H         6.4231935426        5.6326716100       15.7369177130
  H        11.5197820171        7.0923112699        5.2004117028
  H        11.8116789270        6.7582148034        3.4405944903
  C        13.0112292027        5.5434985864        4.7080832173
  H         9.0092413971        6.9911520836        4.5791225212
  H         9.4217075233        6.6360096990        2.8205027462
  C         7.8856172334        5.3835145567        3.6254623418
  H        11.2531859559        4.3761895197        1.4714310284
  C        11.4791744553        1.5493864178        0.8486408101
  H        13.3786403386        3.1399222055       14.9936278823
  H        11.7700215933        3.3057477030       15.4898483378
  C        12.7733891886        1.5662644746       16.0868168041
  C         6.7103576161        8.3991876350       16.3382465934
  H        12.9149209967        4.9485566367        5.6217186125
  H        13.2192997304        4.7779216676        3.9153487226
  C        14.2637529867        6.5281046555        4.8738092911
  H         7.4557461470        5.2272714925        4.6074479446
  H         8.1375522996        4.4348978726        3.1786349126
  C         6.8160702096        6.0517645143        2.7865805804
  C        11.4673333245        0.1675889261        0.6894247933
  C        11.8474940765        2.3712489604       -0.3745961203
  H        13.7160996076        1.1140417040       15.8525853136
  H        11.8922814179        0.9459121962       16.1001034349
  C        12.7483972151        2.1890631950       17.4519956227
  H         6.9287674408        9.3818656678       16.2293068944
  C         6.5456566698        7.9490884028       17.5989616478
  H        14.0703690330        7.2839899871        5.5691578611
  H        14.3378933207        7.1526502531        3.9755464859
  C        15.6030688303        5.7648175100        5.1022747001
  H         6.5818852642        6.9099501328        3.3292075712
  H         7.2581983287        6.2246632592        1.8369398939
  C         5.6333285128        5.1447861882        2.5736149252
  N        11.1587641371       -0.7822141699        1.6282596914
  C        11.9252058330       -0.3853654814       -0.4843608670
  C        12.1829796761        1.8208972345       -1.6137177308
  H        11.8753991301        3.4091934097       -0.1398697212
  H        11.7544503236        2.0440665358       17.8230902731
  H        12.9841633026        3.2718294834       17.4147572291
  H        13.5815834231        1.7840385562       17.9829109551
  S         6.2249031475        6.3627500820       18.1718743474
  C         6.4908758790        9.0239815681       18.6456965759
  H        15.6717631351        4.8545826600        4.4753642394
  H        16.5129139236        6.2643690670        4.7829874348
  C        15.6943895302        5.3252740291        6.5606847237
  H         5.1647479151        4.8711553093        3.5474690143
  H         6.0657787332        4.2673740536        2.0417328168
  C         4.6430813657        5.8505853393        1.7598309372
  S        11.5118668612       -2.2190164061        1.0955809388
  N        12.0231141577       -1.7832311744       -0.4022086320
  C        12.2930872525        0.3360172925       -1.6907169364
  H        12.2192026611        2.3921170228       -2.5309264872
  C         5.9134063797        7.1372511421       19.6976228588
  N         6.1179935874        8.4749664601       19.8124307206
  O         6.7891193490       10.2199784567       18.4489856990
  H        15.4070162837        6.0782447549        7.2447243572
  H        15.0933942151        4.4240553980        6.6221446466
  C        17.1818077592        4.7649842332        6.7999088218
  H         5.1087922063        6.2725161693        0.8797809409
  H         4.0576750235        5.0004494830        1.4726612691
  C         3.7799113723        6.9572410090        2.3653417986
  C        12.6043131909       -0.4121685416       -2.8962216894
  S         5.5611139124        6.2006793731       21.1676913165
  C         5.8681921238        9.2207646340       21.0413060875
  H        17.1862742761        4.1815190516        7.6447537733
  H        17.4562888985        4.2079508945        5.9618036935
  C        18.1079325335        5.9068947028        6.9992862569
  H         3.3730300572        6.6315860294        3.3599382261
  H         3.0186590491        6.9813583004        1.5975627017
  C         4.4074207450        8.3699082440        2.3263656230
  H        12.3707581462       -1.4353316756       -2.8023057121
  C        13.0489667379       -0.0160314078       -4.1256203680
  H         4.9920669150        8.8351053002       21.6103835196
  H         5.6468762391       10.2468813709       20.8158122389
  C         7.1552471221        9.2014603223       21.8261106479
  H        18.4225692553        6.0699307648        8.0329841094
  H        17.7756983283        6.9083519556        6.6869440250
  C        19.5021212786        5.6502810432        6.3504583860
  H         4.5425129483        8.7419856770        3.3162844923
  H         5.4114624821        8.3620426611        1.8414230187
  C         3.4968477110        9.4253266523        1.6259956657
  S        13.6176422356        1.5235825346       -4.4977294177
  C        13.2470688647       -1.0620735203       -5.1528294074
  H         7.1732237718        8.4801044595       22.6046347746
  H         7.3741802375       10.1791059439       22.2389324526
  H         8.0106799664        8.9636203036       21.1567546024
  H        19.4498241911        5.4506536525        5.2945388852
  H        20.1827335569        6.5688114907        6.3695208209
  H        20.0290302943        4.7914232653        6.7539725765
  H         3.9431785377       10.4498934938        1.5105911077
  H         3.1405331126        9.0115366254        0.6459363548
  H         2.6541161790        9.5657036914        2.3240140098
  C        14.2102148788        0.7620383222       -5.9867948494
  N        13.8624411240       -0.5208437124       -6.1899149931
  O        13.0246569517       -2.3029088514       -4.9575177609
  S        14.7010849412        1.5301157745       -7.4905261578
  C        14.1224060467       -1.3220228502       -7.3486968312
  H        14.3158349449       -2.3029207158       -6.9577547719
  H        15.0623741277       -1.0579696813       -7.8688049272
  C        12.9206845652       -1.3599410234       -8.3164256365
  H        12.0796995417       -0.8209929269       -7.8360339421
  H        12.6680633727       -2.3663731336       -8.4981274721
  H        13.1558617914       -0.9279994081       -9.2740133127
  H        -1.9182648005       14.4913108477       15.7692209093
  C        -2.2588652381       14.1430107876       16.7318829877
  H        -2.6870556725       15.0784292703       17.1724818308
  C        -1.1582012867       13.5559200404       17.6178357685
  C        -3.2713968270       13.0413160859       16.3203555746
  C        -1.2053625893       14.0926342516       19.0398135059
  H        -1.1891107250       12.5333420057       17.6940462541
  H        -0.1929871526       13.7507950119       17.2066592428
  H        -4.2564394188       13.1885106322       16.7688085022
  H        -3.4738940505       13.0726754822       15.2752934418
  H        -2.8920045646       12.0755385337       16.6427341192
  C        -1.7857680920       12.9763370428       19.8654680635
  H        -1.8824371590       14.9598695593       19.1812724503
  H        -0.1578447696       14.3914917972       19.3384138751
  C        -2.2119158450       13.2204545389       21.2555009175
  H        -2.7200640155       12.6577677380       19.3168931803
  H        -1.1847034669       12.1090479170       19.7974092487
  C        -1.2964124901       12.6729150904       22.4005815615
  H        -3.2124510007       12.8185399159       21.3057304962
  H        -2.3807124023       14.2414827525       21.3806416015
  C        -0.1174054209       13.6044152795       22.8825483555
  H        -1.8761491259       12.2449555068       23.2214449974
  H        -0.7760924338       11.7670930978       22.0293719190
  C         1.2188757148       12.9856620299       23.4483136111
  H         0.1831712835       14.3412577052       22.0860403796
  H        -0.5404840999       14.2578784489       23.6701789315
  C         1.5483992401       11.5839300242       22.7814643004
  C         0.8795893645       12.1921020251       24.7787135368
  C         2.3567562920       14.0001967148       23.5613518409
  C         1.3583180993       10.4680691243       23.6499814510
  C         2.0515235678       11.1728725598       21.5225506626
  C         1.0244791553       10.8462007550       24.9232159298
  C         0.3374807568       12.7819066203       25.9414222957
  H         2.5156343122       14.5377705182       22.5738354434
  H         2.0214590950       14.7150155062       24.3129121079
  C         3.7275256444       13.2875305085       23.9721523186
  S         1.6593204978        9.0310320809       22.8313628271
  C         2.0533395435        9.8503390793       21.3233503218
  H         2.2073308030       11.8946994083       20.7870971875
  C         0.6367364695       10.2419777707       26.1017384092
  H         0.1527609522       13.8475914021       25.8480492604
  C        -0.0432622162       12.1882319454       27.0986607467
  H         4.0658321545       12.6205746309       23.1710986146
  H         3.5099731854       12.6973754724       24.8878297011
  C         4.9229239161       14.2522660848       24.2788726218
  C         2.3076820448        9.2381309978       19.9560304468
  C         0.0885934488       10.8342260320       27.2089492340
  H         0.7785478169        9.1492782899       26.1360895622
  C        -0.4931224654       12.6031797550       28.3403492690
  H         5.8309209994       13.7684576207       24.7338027075
  H         4.5697142140       14.9431551125       25.0581604335
  C         5.4766957592       14.8834224372       23.0103017136
  C         2.3473163351        7.8515866847       19.7570334894
  C         2.6990298827       10.1029456942       18.8385671520
  C        -0.3188842214       10.1601226029       28.4616561772
  C        -0.7213465126       11.5135834968       29.1866216495
  S        -0.9068042208       14.0829938879       28.9717543821
  H         5.9981737934       15.7926651102       23.2070718241
  H         4.6146123029       15.1265794980       22.4383288885
  C         6.3170936028       13.9785187706       22.0763064793
  N         2.0754248115        6.8776452657       20.7461265088
  C         2.6932596082        7.3135425160       18.5570152620
  C         2.9945711695        9.5259112903       17.5949818933
  H         2.6367433886       11.1738196756       18.8278161201
  C         0.7810605290        9.5517358731       29.3725320169
  C        -1.5799286309        9.3347654608       28.2216456121
  C        -1.2595806281       11.9704207111       30.3743030784
  C        -1.3190560848       13.3720919600       30.4534160574
  H         7.3922820038       14.1737602140       22.2102816902
  H         6.2674114840       12.9752458168       22.3802696678
  C         5.8360570982       14.2404616719       20.6524212401
  S         2.3108664868        5.4139224933       20.0531305955
  N         2.7217368887        5.9497847043       18.5791203908
  C         3.1208358017        8.0531703987       17.4456278245
  H         3.1705928776       10.0598962846       16.6804328081
  H         1.2688851518        8.8014940574       28.8109637429
  H         0.4224296176        9.0970942174       30.2381195170
  C         1.8747103145       10.5539353955       29.9702234723
  H        -1.3904275003        8.3743241332       27.6549820869
  H        -2.0337937884        8.9967024996       29.1423323268
  C        -2.7015201649       10.1201533505       27.5323089039
  H        -1.2882109068       11.2637583890       31.2765727869
  C        -1.6693056835       14.1482662277       31.6631737719
  H         6.0920952273       15.2286355414       20.4034443495
  H         4.7869745481       14.0526621628       20.5048902052
  C         6.6093665246       13.4222783481       19.6209380073
  C         3.2322991272        7.3693308262       16.2386895430
  H         2.2443411924       11.2164492837       29.2120693195
  H         1.3589735992       11.1635141677       30.7149405880
  C         2.9345722990        9.6397971551       30.5463850478
  H        -2.2837646817       10.6009764534       26.6186059454
  H        -3.0936312097       10.9184610741       28.2513473517
  C        -3.9431437360        9.2774486911       27.2460890564
  C        -1.6400550138       15.5675515221       31.7608645536
  C        -1.8666798433       13.3697118056       32.9418853191
  H         7.0721199017       12.6092603629       20.1570030009
  H         5.9128924571       12.9744265581       18.9140737845
  C         7.7574481069       14.1538708008       19.0046871676
  H         2.9754719144        6.3785242567       16.3276430673
  C         3.4849043823        7.6587616741       14.9170325938
  H         2.9865555303        8.7028861208       30.0069956690
  H         2.5920177950        9.4904171082       31.5966621222
  C         4.2850536060       10.3384999341       30.4349303631
  H        -3.8969071142        8.6793847139       26.3295374687
  H        -4.2904765239        8.7761638239       28.1313273854
  C        -4.9178839405       10.3371482042       26.7998969707
  N        -1.3551197738       16.4985977259       30.7714288071
  C        -1.8927534305       16.1642234271       32.9848693398
  C        -2.1932365051       13.9754237158       34.0943881095
  H        -1.7875051907       12.3088641750       32.9073987169
  H         7.4531456438       14.9987071287       18.3362247125
  H         8.3731742422       14.6224801413       19.7540793621
  H         8.4067180372       13.5107314603       18.3913205252
  S         3.8860952063        9.1556509302       14.3473025511
  C         3.4629907387        6.5286874692       13.9564936503
  H         4.3045285591       10.6805303459       29.3976900794
  H         4.2934391096       11.1101962511       31.1171059124
  C         5.4807313811        9.3705629333       30.7624454167
  H        -4.3068566424       11.1812094926       26.4683765673
  H        -5.4801560327       10.8286689351       27.6375892637
  C        -6.0166926285        9.8295534071       25.8818169984
  S        -1.6514702321       17.9334836403       31.3393851738
  N        -1.9738353631       17.5893977472       32.9636035974
  C        -2.2117411951       15.4493030308       34.1522892101
  H        -2.2783074391       13.3377619283       34.9739539678
  C         3.9858114049        8.4083148026       12.7877170480
  N         3.8568223307        7.0476713034       12.7727385768
  O         3.1995601806        5.3271095015       14.1008524587
  H         6.3835729919        9.9646098635       30.9008627710
  H         5.6652349016        8.7032814281       29.8723638731
  C         5.3733325628        8.5416992155       32.0587039132
  H        -5.5504987445        9.4949789659       24.9393649881
  H        -6.4177486296        8.9615628450       26.3522634106
  C        -7.1369079194       10.7809625176       25.5466689469
  C        -2.5257460078       16.1648842497       35.3302070852
  S         4.3294485290        9.3237943960       11.2784336002
  C         3.7708379551        6.2376267695       11.5410692247
  H         5.8441269243        9.1326944717       32.8631548589
  H         4.3613203536        8.4712743162       32.3279194665
  C         6.0015381824        7.2025003548       31.8466436171
  H        -6.9652305424       11.1837976905       24.5451282069
  H        -7.2182617158       11.6744458192       26.2796070389
  C        -8.4276664341       10.0294578963       25.3274732984
  H        -2.2750738638       17.1863656432       35.2381698101
  C        -2.9268979735       15.8773104333       36.6165615415
  H         4.4288954212        6.7335134966       10.8395316118
  H         4.1334166837        5.2156402801       11.4810195403
  C         2.3705413146        6.3012328735       10.9513986709
  H         6.3437517994        6.7264329691       32.7850292608
  H         6.9014826032        7.3190612768       31.2246645689
  C         4.9585007018        6.2493721988       31.2310982780
  H        -8.8361438837       10.3562688885       24.3827575441
  H        -8.2974931013        8.9731412864       25.2387723348
  C        -9.5001800312       10.3024304877       26.4202968826
  S        -3.5741904050       14.3421711770       37.1584083682
  C        -2.9515573534       16.9693340712       37.6261396695
  H         2.3338955471        5.7379361778       10.0036090223
  H         1.5652962589        5.8829425084       11.6024611412
  H         2.1926705639        7.3353668955       10.7037406806
  H         5.4220494069        5.3351469838       30.7298255680
  H         4.3435671147        6.7307055078       30.4915728222
  H         4.2435560337        6.0035363398       31.9814731710
  H        -9.5675427007       11.3783787525       26.7097589530
  H        -9.3056614752        9.6382602968       27.2562355942
  H       -10.4214955347       10.0478762652       25.9660984025
  C        -3.7743760467       15.1204896003       38.6787572398
  N        -3.5018558288       16.4516047674       38.7230031172
  O        -2.5981713813       18.1237398114       37.4354045495
  S        -4.5381105394       14.4042669421       40.1162745178
  C        -3.6280392260       17.2137808347       39.9633133586
  H        -3.5458554568       18.2553395757       39.6577414195
  H        -4.6004661131       17.0967736268       40.4958729421
  C        -2.4842413263       16.9784949940       40.9168272392
  H        -1.5736041570       17.1798563863       40.3283732789
  H        -2.5499992898       17.7306836172       41.7642696506
  H        -2.3708737801       16.0068152547       41.3836287331
