352
i=
  H         2.6035524459        3.3787844710       12.7501976675
  C         2.7919011483        2.3117220971       12.5513597131
  H         2.0805739454        1.6899606814       13.1073811928
  C         2.5371011666        1.9464494955       11.0600695299
  C         4.1945687736        1.8993058947       12.9432444513
  C         3.4765215096        2.5477135235       10.0406455118
  H         1.5827777491        2.3832667027       10.8562771728
  H         2.3987543456        0.8531794889       10.9057918928
  H         4.3855859978        0.8445709029       12.4827252049
  H         4.3010124560        1.8564324825       14.0314263070
  H         4.7563475127        2.6499734221       12.4264064607
  C         4.4310848629        1.4226326360        9.4873171028
  H         2.9933731489        3.1633683859        9.2423054206
  H         4.1237372115        3.2737533171       10.5548420542
  C         5.3237721207        1.8209253170        8.2158718405
  H         3.7489235657        0.7300171937        9.0952056869
  H         4.9676852171        0.8207737790       10.2239710749
  C         6.4283711509        2.7882178902        8.5434719773
  H         4.6350716489        2.2109051623        7.4682111511
  H         5.7376902176        0.9450630302        7.7147313316
  C         7.6688927111        2.0067954273        9.1368105628
  H         6.6061853900        3.4819237096        7.6637014038
  H         6.1120911166        3.4315040670        9.3547832655
  C         8.9537844152        2.9115187782        9.2168217189
  H         7.8407815261        1.0631154187        8.5354077203
  H         7.3053966655        1.6637058844       10.1040700450
  C         8.5736095233        4.2782538411        9.8925040541
  C         9.3192757365        3.6332596761        7.9696932843
  C        10.0315731680        2.1850018030       10.0558859832
  C         8.8541648765        5.3439827044        9.0877877849
  C         8.0682013063        4.6674632921       11.1611918358
  C         9.3361083540        4.9682541345        7.8328224273
  C         9.7943839627        2.9993148121        6.8229274839
  H         9.6449890162        1.8442356086       11.0297898543
  H        10.2271594061        1.3148726941        9.3673092594
  C        11.3889976139        2.8146445067       10.1936771417
  S         8.5654046329        6.9205799178        9.8848265560
  C         8.0876760843        6.0556839580       11.3564412003
  H         7.8454919424        3.8582413191       11.9392243120
  C         9.6072529146        5.6053116693        6.6374017777
  H         9.8461667254        1.9208300129        6.7021064472
  C        10.1733784218        3.6439806730        5.6426728198
  H        11.3088172143        3.9292466784       10.1050651631
  H        12.0331612480        2.5283287540        9.3576657233
  C        12.1937624416        2.4505461447       11.4132179727
  C         7.6570203795        6.6950251344       12.6097945158
  C        10.0561575784        4.9882923060        5.4911072099
  H         9.6047807968        6.6885590187        6.6123583966
  C        10.5633528388        3.2432722683        4.4141874449
  H        13.0935621424        3.0915690202       11.4355082131
  H        12.4725782692        1.4051832188       11.4402400192
  C        11.5811511581        2.8785399787       12.7447714448
  C         7.5690177173        8.0815106468       12.7989411803
  C         7.2292384671        5.8649827530       13.7503431633
  C        10.4077842371        5.7020403177        4.2040407717
  C        10.7589219623        4.3409247990        3.5558528444
  S        10.9483752251        1.6830414192        3.7576334579
  H        11.7602942630        3.8822220147       12.9164911483
  H        10.5024207293        2.7994981105       12.6886248343
  C        11.8393478716        1.9583728371       13.9416236825
  N         7.6461947089        9.0330374044       11.7631587569
  C         7.1768354177        8.6314905143       14.0375711726
  C         6.8763032939        6.4315926236       14.9850469175
  H         7.2929110148        4.7701972447       13.6729792201
  C        11.7495908899        6.4876073379        4.2606791660
  C         9.2466512332        6.4319303012        3.5081860857
  C        11.2839556076        3.8501703110        2.3307421997
  C        11.3111312060        2.4346305565        2.2277251822
  H        12.8153133916        1.5522771616       13.8466200760
  H        11.1317771948        1.1398986119       13.8387436374
  C        11.7108268639        2.7283203992       15.2629993823
  S         7.3414542440       10.5564750606       12.4657826330
  N         7.0823321660       10.0009577236       13.9927506468
  C         6.8425013147        7.8927970824       15.1632639816
  H         6.6089059035        5.7239886452       15.7727894759
  H        11.6239925105        7.5687326432        4.4644152009
  H        12.1708305744        6.5493815219        3.2789048065
  C        12.8238208684        5.9732741005        5.2885091749
  H         8.8259637942        7.1303114758        4.1947490599
  H         9.4814347717        6.9949308104        2.6025449697
  C         8.2330475348        5.4099684712        3.0578495719
  H        11.5110307254        4.6311095245        1.5768134343
  C        11.6575617586        1.6648164524        0.9777103304
  H        11.7040698866        3.7504670403       14.9523615436
  H        10.7370273936        2.6080553043       15.7322828290
  C        12.8788412937        2.4263662999       16.1457092038
  C         6.6329118942        8.5820992430       16.4130299062
  H        12.4080399870        6.2841603525        6.2610410454
  H        12.7783987845        4.9060254068        5.3297127211
  C        14.2491549799        6.5520101530        5.1086955714
  H         8.1786713985        4.5566634341        3.7117660960
  H         8.6215297134        5.0342724001        2.0814102449
  C         6.7401477218        5.8503363064        2.6692095323
  C        11.7387887216        0.2934654915        0.8191962090
  C        11.9251381528        2.4069411590       -0.2609005069
  H        13.8657521330        2.6808955085       15.8126258005
  H        13.0150779292        1.3650856875       16.1818435560
  C        12.5828232079        2.9315709286       17.5347499275
  H         6.9342788686        9.6831582478       16.3982659109
  C         6.2769341180        8.1200438037       17.6963934235
  H        14.2654454647        7.6550639848        4.9653574697
  H        14.6391082910        6.0493911669        4.1717847876
  C        15.2131168319        6.2392183747        6.3379391568
  H         6.0385323698        5.0194993721        2.9544060745
  H         6.4888544754        6.6697901266        3.2958770242
  C         6.6660464500        6.1551478412        1.1829703729
  N        11.3580583634       -0.6459822324        1.8638667211
  C        11.9980720141       -0.3890991578       -0.4017190749
  C        12.2652026402        1.7466719457       -1.4796628747
  H        11.8301553663        3.4438479061       -0.2471648552
  H        13.5023182649        2.8028251091       18.1746717919
  H        11.8109798835        2.3014945779       18.0214612509
  H        12.3083839961        4.0001315982       17.5797827440
  S         6.0436965537        6.4418592600       18.2168007877
  C         6.2242530588        9.0997564711       18.7964607407
  H        15.6993511885        7.1055842277        6.6165908506
  H        14.7011140099        5.9770404985        7.2279265322
  C        16.2324384760        5.1778842256        6.0258586039
  H         6.7094017406        5.2492092711        0.5135417956
  H         7.6589236427        6.6152241898        1.0478035549
  C         5.5053321893        7.0392264165        0.7686745979
  S        11.3107686530       -2.1516243198        1.2190004793
  N        11.8249507049       -1.7666648444       -0.2819955361
  C        12.3949487758        0.2504312260       -1.6004114101
  H        12.4165971285        2.4213755210       -2.3440932834
  C         5.8408785346        7.0959283184       19.8348593908
  N         5.8729912624        8.4258804226       19.9485240158
  O         6.3093281987       10.3399238006       18.5999063398
  H        15.7732664881        4.4137165932        5.4236313012
  H        17.0825657009        5.6117047136        5.4744187730
  C        17.0438685221        4.6009540449        7.1881056331
  H         5.7448414393        7.5209580768       -0.2022913267
  H         4.6355113008        6.4093060316        0.4897503821
  C         4.8971042048        8.0072587679        1.7323406325
  C        12.6398552489       -0.5194154236       -2.7875027749
  S         5.5345023783        6.1071300693       21.2781221930
  C         5.8798252123        9.0755330830       21.2929114988
  H        16.3842472140        4.4715273185        8.0032733572
  H        17.4195152443        3.6191349677        6.9030991564
  C        18.2140575360        5.5335684413        7.6694716372
  H         5.7134987435        8.5951319485        2.2774015295
  H         4.2660559493        7.5119418505        2.4081489769
  C         4.0885899907        9.0354528217        1.0479677029
  H        12.5977808030       -1.5315104351       -2.6747573350
  C        13.1255447525       -0.1679992053       -4.0228898299
  H         5.1214630348        8.7082827781       22.0489079725
  H         5.5876886494       10.0774515155       21.0270631931
  C         7.2923793106        9.1892004196       21.9449162455
  H        18.5914447144        5.3643622849        8.7046874480
  H        17.9088592327        6.5867185371        7.4862335957
  C        19.3848834048        5.4845723684        6.7655096421
  H         4.7355369226        9.5493400419        0.3051840856
  H         3.3092609678        8.5155985714        0.5502904939
  C         3.3886561652       10.0970409114        1.9167359518
  S        13.7084922172        1.3742276059       -4.4614869215
  C        13.2342670112       -1.2507122942       -5.0709062066
  H         8.0634171948        9.3981621682       21.2129154268
  H         7.5216464221        8.2108095869       22.4847499545
  H         7.2321402601        9.9903308271       22.6473169672
  H        19.4017623195        6.3200175452        6.0757487390
  H        20.2333627141        5.7002454421        7.4241973160
  H        19.3693325044        4.4948091874        6.1683268100
  H         2.4604410352        9.6573827877        2.3652389328
  H         4.1142856384       10.4248348252        2.6855052866
  H         3.0888485168       10.9293832343        1.3440094841
  C        13.9460667925        0.6043467938       -6.0957664055
  N        13.8140115451       -0.7712713559       -6.1702773743
  O        12.9602921691       -2.4367173913       -4.8814258388
  S        14.4969674823        1.3422847583       -7.6071305419
  C        13.8777636245       -1.5584488867       -7.4084284771
  H        14.2766716215       -2.5007153795       -7.1955023436
  H        14.6390401586       -1.1502937124       -8.0262854964
  C        12.5826701580       -1.5627787141       -8.1345554404
  H        11.9464432494       -2.1715475389       -7.5836654811
  H        12.6596937402       -1.8840355928       -9.2356089526
  H        12.1302368421       -0.5761576237       -8.1460224179
  H        -2.5724901953       12.1849536318       17.3469218650
  C        -2.6686095834       13.1546717270       16.9271323452
  H        -1.6515131250       13.5823594238       16.7856629490
  C        -3.4407060570       14.0844523621       17.8813954333
  C        -3.3818045887       13.0006947511       15.6171560829
  C        -3.9278688877       13.3028812885       19.0737518227
  H        -2.7881369461       14.8813618852       18.2251359046
  H        -4.2882336782       14.6623531580       17.4142061673
  H        -2.7791998094       12.4340743816       14.9236268043
  H        -4.2697060580       12.4255707993       15.8231894121
  H        -3.6901169797       13.9273554163       15.1653542998
  C        -2.7494377258       12.8404686644       19.8861200919
  H        -4.5237913732       12.5379549927       18.6653492138
  H        -4.5839285019       13.8981764034       19.7107582413
  C        -2.9506212505       12.8384082077       21.3805675404
  H        -2.3881937100       11.8284380174       19.6206829259
  H        -1.9352912554       13.4436040260       19.5708594974
  C        -1.8852845447       12.2544115631       22.3113014820
  H        -3.8589344571       12.3290238712       21.5350799526
  H        -3.1577252264       13.8424966073       21.6606530876
  C        -0.6451500156       13.2554020214       22.4489160131
  H        -2.3612337138       12.1742242278       23.3421965162
  H        -1.4790542473       11.2727378323       21.9752733920
  C         0.5830124812       12.6963638498       23.3562529458
  H        -0.3226712863       13.5589906559       21.4584064234
  H        -1.0939163221       14.1816977953       22.9195021990
  C         0.9803819413       11.3137402546       22.7063357745
  C         0.1348031041       12.0629762421       24.6353273111
  C         1.7987359623       13.6922236817       23.4189770093
  C         0.6100732386       10.2620858457       23.5729817046
  C         1.8044639765       10.9194715374       21.6501889621
  C         0.1414658709       10.7228689084       24.7680428248
  C        -0.3688140593       12.8562406248       25.7428323972
  H         1.9999798009       14.2394835649       22.5068476311
  H         1.5605207092       14.3888421288       24.2137356528
  C         3.0976523858       12.9595775578       23.7612658231
  S         1.0360843006        8.7601334621       22.9428540672
  C         1.8649833823        9.5510144355       21.5994961959
  H         2.1232671409       11.6824339827       20.9212379252
  C        -0.2236132738       10.2626415265       25.9866407933
  H        -0.4888019962       13.9014131783       25.6519472581
  C        -0.7285453530       12.2983676150       26.9608498058
  H         3.4352958266       12.3420307402       22.9621471354
  H         2.9009746698       12.4038752956       24.6744585760
  C         4.2487835843       13.8324728681       24.2073299802
  C         2.2734829223        8.8087323215       20.3705765434
  C        -0.6454410366       10.9673916581       27.0995815201
  H        -0.1280356560        9.2019489979       26.1939431149
  C        -1.1256384192       12.7716019075       28.2021133672
  H         5.0168358152       13.2370950826       24.7444965164
  H         3.9662548961       14.5490596663       24.9498306357
  C         4.8631337256       14.5955028370       22.9918678371
  C         2.2904077908        7.4073633993       20.1581958850
  C         2.7159994566        9.6211426877       19.2184736643
  C        -0.9985046668       10.2818797868       28.4100985041
  C        -1.3730744385       11.7046228879       29.0427310349
  S        -1.4198469138       14.3216895596       28.8901063216
  H         5.2709864389       15.5342819550       23.3444769522
  H         4.1503881367       14.8377655460       22.2210296052
  C         5.9293184927       13.8494659383       22.2758555794
  N         2.1040317488        6.5050701650       21.1701990653
  C         2.6169331973        6.8256569454       18.9696530656
  C         3.0435757713        8.9816240102       18.0168708043
  H         2.6923607540       10.7042704074       19.2519758185
  C         0.2583587420        9.4724541398       28.9940048791
  C        -2.2635733864        9.3881451213       28.2672117156
  C        -1.8013332755       12.1305652975       30.2511763828
  C        -1.8670602164       13.5032594066       30.2973439896
  H         6.8987679041       14.0630707915       22.7134558730
  H         5.7624302572       12.7980930535       22.5728110445
  C         5.7920054662       14.0199134461       20.7521955113
  S         2.0843475310        5.0160038628       20.5559609297
  N         2.4911307173        5.4445189559       19.0312631706
  C         2.9377419618        7.4894803487       17.8189062462
  H         3.2003551957        9.6635934233       17.2346785725
  H         0.5643649400        8.7351935943       28.2206127083
  H        -0.1120678994        8.8445294338       29.7899231584
  C         1.4674051430       10.2760342962       29.2837288281
  H        -1.9078090633        8.4437500877       27.7893288953
  H        -2.7039176281        9.0966862176       29.2527316994
  C        -3.4177670666        9.9763460181       27.4092785725
  H        -1.9490300402       11.4253705297       31.0237586884
  C        -2.0892840485       14.2054905971       31.5673040758
  H         5.4822019916       15.0626093957       20.5450620986
  H         5.0734894608       13.4721718132       20.2319114068
  C         7.1215759588       13.6644092698       20.0687430540
  C         3.2623148674        6.8366093434       16.6230803322
  H         2.0310163802       10.4513568139       28.3696472529
  H         1.3936288530       11.2349189869       29.7335712333
  C         2.4217133933        9.6150053554       30.2292844283
  H        -3.2441543420        9.9586545219       26.3434316878
  H        -3.7301424742       10.9624081283       27.7270315809
  C        -4.6436142229        9.0102463312       27.3052708303
  C        -2.0964635981       15.6118634228       31.7780799218
  C        -2.4221096847       13.5052244350       32.8482393263
  H         7.9598694316       14.2330117403       20.4949016976
  H         7.3062917011       12.5947776157       20.1703924134
  C         7.0917378991       13.8622446918       18.5363390745
  H         2.9552562956        5.7807016616       16.6292169195
  C         3.4101170649        7.3033292990       15.3374340839
  H         2.9201923175        8.7372211102       29.8293814269
  H         1.8444100595        9.2646545753       31.0629363211
  C         3.5117322911       10.5755875631       30.7375814931
  H        -4.5748080564        8.4628585145       26.3595275307
  H        -4.6580402906        8.1476324317       28.0626428143
  C        -5.8984327970        9.7804696371       27.0421902929
  N        -1.8091140232       16.5367054849       30.7992925643
  C        -2.4035446927       16.2521458277       32.9997755423
  C        -2.7021797013       14.1628147238       34.0786414855
  H        -2.3067003332       12.3785878275       32.8942463568
  H         6.2783316227       13.3820972822       18.0432547140
  H         7.1046480465       14.8815503239       18.2966830585
  H         7.9420071657       13.3353419090       18.0304469212
  S         3.5143299596        8.9122960008       14.7603160480
  C         3.4617656034        6.2107934807       14.3004644562
  H         3.4843032443       11.5409592146       30.2790756089
  H         3.2464004479       10.6624788114       31.8165460977
  C         4.9444649529        9.9956955572       30.4686248731
  H        -6.1048497578       10.5918418108       27.7251329758
  H        -6.7088275885        9.1046373912       27.2893824394
  C        -5.9209562962       10.4191007764       25.6212876247
  S        -1.9338133425       18.0454791850       31.3684578039
  N        -2.3167638211       17.6615732001       32.9146237569
  C        -2.7632803008       15.6347664039       34.2051920706
  H        -3.0010869467       13.5286885017       34.9477769259
  C         3.5790247218        8.2319947330       13.1823578318
  N         3.6655158233        6.8592132807       13.1216762147
  O         3.5588940387        5.0268261781       14.5266687363
  H         5.7118451235       10.6252399142       30.8170659760
  H         5.0113768946        9.8879540695       29.3558827050
  C         5.2804724393        8.6927709013       31.2752889036
  H        -5.1104370473       11.0309177776       25.2444460209
  H        -6.0064725359        9.5993504482       24.8906227759
  C        -7.1905794042       11.2904142905       25.4337827310
  C        -3.0730535690       16.4609883978       35.3619366955
  S         4.1010048620        9.1483898672       11.7692234273
  C         3.6108945589        6.1308349654       11.8654860941
  H         6.0496670047        8.8962821855       31.9872838483
  H         4.4321055844        8.2427045958       31.7833406872
  C         5.8593419828        7.6098185069       30.3940939328
  H        -7.0384457770       11.9737557279       24.6215860544
  H        -7.3190547131       11.9210403620       26.2715867132
  C        -8.4772952799       10.4078592897       25.2590972592
  H        -2.7506118485       17.4806843498       35.2695279021
  C        -3.4730190331       16.0305876050       36.5958777915
  H         4.4598056557        6.3550746179       11.1718395789
  H         3.8559447256        5.0839587564       12.1908669936
  C         2.1709482450        6.2604282434       11.1533679155
  H         6.7204982826        7.9050061600       29.8055170300
  H         5.1358144150        7.3079991017       29.7009349688
  C         6.1772076331        6.4066767666       31.2829915225
  H        -9.0697574299       10.7373097316       24.3931600359
  H        -8.3259680326        9.4001661134       24.9379620387
  C        -9.3150978731       10.4018064950       26.5803230807
  S        -4.0285771866       14.4710451614       37.0992377032
  C        -3.4838993025       17.0942328584       37.6626144778
  H         1.3804752990        6.3377273927       11.8700596906
  H         1.9776130002        7.1361036466       10.5673131905
  H         1.9779498511        5.3530822775       10.6193109388
  H         7.2163164921        6.4728189118       31.6731228337
  H         6.1855765612        5.4251232507       30.7364293176
  H         5.4171223768        6.3778152584       32.0348002335
  H        -9.5634771532       11.4590645000       26.8317241469
  H        -8.8732306292        9.9336078682       27.4365379778
  H       -10.1866584745        9.7740068353       26.5537510249
  C        -4.2203229092       15.2511625493       38.7064973226
  N        -4.0627084352       16.5913268946       38.7532129950
  O        -3.2121398035       18.2662077185       37.4143858080
  S        -4.9541964244       14.5785287198       40.1761681319
  C        -4.1201609810       17.4253693558       39.8923666196
  H        -4.1521651016       18.4794987040       39.5906199179
  H        -4.9832425524       17.2144053201       40.4494884983
  C        -2.8783454527       17.2149872117       40.7728179127
  H        -3.0448099533       17.5662603532       41.8326213127
  H        -2.6295846024       16.1865292835       40.9747740549
  H        -2.0188028842       17.7646182317       40.3080236166
