352
i=
  H         4.8629053429        1.5698879203       12.4274625382
  C         4.3281244602        2.5324259882       12.6322732306
  H         5.0131418396        3.4065317211       12.5809329496
  C         3.3486827469        2.6519783514       11.4899209537
  C         3.6942413926        2.3998060971       13.9969163078
  C         3.9093380568        3.0378346726       10.1691149990
  H         2.6660313890        3.3732388762       11.6497821197
  H         2.7097015504        1.7578453162       11.3895473082
  H         3.4410188177        1.3493216591       14.2151403559
  H         2.7518231038        2.9146752613       14.0116437870
  H         4.2954648017        2.7025770045       14.8008645012
  C         4.6124712050        1.7978644987        9.6815855876
  H         3.0876191305        3.2774751109        9.4911453747
  H         4.5518586720        3.9023189440       10.2557432940
  C         5.2678181700        1.9818065494        8.3137067360
  H         3.8874900259        0.9729527487        9.5626273457
  H         5.2968768031        1.4496738307       10.4122120764
  C         6.4936870685        2.8642515809        8.2550456915
  H         4.4004738643        2.1006248509        7.6556122459
  H         5.5974655357        0.9572344762        8.1810145714
  C         7.7306549266        2.1897050738        8.8417950897
  H         6.6231153252        3.0980884700        7.1852377155
  H         6.2893850996        3.7834597730        8.7202720104
  C         8.9902673787        3.1261830715        9.0855284462
  H         8.0489321986        1.3010202458        8.2920645320
  H         7.3545846305        1.8022421553        9.7861979383
  C         8.6405218577        4.4345087862        9.8332208502
  C         9.4197627226        3.8373110670        7.8645321799
  C        10.2047644513        2.4376133698        9.7306445991
  C         8.8155046473        5.5736462525        9.0817103436
  C         8.1533311084        4.7458855011       11.1372330290
  C         9.2782598107        5.1674129846        7.8243141410
  C         9.9557438460        3.1509480542        6.7727459390
  H         9.7342107682        1.8973194407       10.5303021495
  H        10.7147266587        1.7722606602        9.0976870989
  C        11.2086254342        3.4082391317       10.3760566794
  S         8.3079205120        7.0614492845        9.8325261325
  C         7.9121861942        6.1096368592       11.2365832479
  H         7.9914824579        3.9555970038       11.8168197414
  C         9.7712218443        5.7660586704        6.6973533397
  H         9.9312894544        2.0729856696        6.7774559575
  C        10.2948266529        3.7569113613        5.6193525314
  H        10.9766355833        3.9035237731       11.2724391732
  H        11.4654460311        4.2731550328        9.7531248225
  C        12.5473526678        2.6197297074       10.7292634238
  C         7.4493229088        6.7327647521       12.5136279674
  C        10.2232753969        5.1135978248        5.5416362618
  H         9.5985478069        6.7942736710        6.7202167087
  C        10.6392066834        3.4007527640        4.3573775942
  H        13.4865209701        3.2203241800       10.7060197813
  H        12.7373184593        1.8886243196        9.9515742136
  C        12.6073527394        1.8739147710       12.1409044016
  C         7.4683592598        8.1241391217       12.7967945651
  C         6.9589716407        5.8205037960       13.6197986193
  C        10.7453399547        5.8643417793        4.2268668779
  C        10.9475924601        4.5372363706        3.5701218882
  S        10.9620129923        1.9065382407        3.6869158109
  H        11.6898636780        1.4124076019       12.5241359244
  H        13.3235827440        1.0790362301       12.1230817987
  C        13.0575980318        2.8149681421       13.2242624106
  N         7.7114253828        9.1503960208       11.8680896592
  C         7.2547363082        8.6109081828       14.0813032600
  C         6.6747458785        6.3954156291       14.8317703365
  H         6.9499219445        4.7352878593       13.4884424201
  C        12.1299895416        6.5357342435        4.2450994711
  C         9.8567260353        6.8742164117        3.4990321712
  C        11.4650594140        4.1331089116        2.3304924949
  C        11.4124000445        2.7644968568        2.1854491775
  H        12.9770921219        3.8269349806       13.0133126035
  H        14.1130277808        2.7132262592       13.4296564435
  C        12.3756326264        2.6167534409       14.5919320775
  S         7.6141692342       10.6218445417       12.6656014290
  N         7.3392808187       10.0043581055       14.1271634343
  C         6.8855302987        7.7893498043       15.1804478788
  H         6.4427291899        5.6598258328       15.6283592049
  H        12.0131122674        7.5523721397        4.2079543428
  H        12.6968506574        6.2331316348        3.3582495126
  C        13.0255825382        6.0991853123        5.4297038511
  H         9.6749058852        7.7397093687        4.1304098452
  H        10.3055687739        7.2787400640        2.5898776015
  C         8.4654326888        6.2297664675        3.3642671821
  H        11.7405057780        4.9215233869        1.6452817610
  C        11.7239869675        2.0752345666        0.9344516464
  H        12.1521594624        3.6367022511       14.9125188025
  H        11.4344080092        2.1760519035       14.4443309565
  C        13.2218650181        1.8822872517       15.6252499992
  C         6.8048286227        8.4178129722       16.4693108402
  H        12.7231722805        6.8435341104        6.1770566189
  H        12.8505620324        5.0979544415        5.8169399249
  C        14.5440431947        6.3159690456        5.0827493037
  H         7.9009544187        6.3009693877        4.3010713359
  H         8.6169503328        5.1902424196        3.1707120414
  C         7.6729345105        6.6842325824        2.1178593628
  C        11.7257510608        0.6509743861        0.8337451090
  C        12.1986183006        2.8425353720       -0.2993570652
  H        14.3412313868        2.0272294000       15.3837217026
  H        12.9967143354        0.7851601983       15.4674614220
  C        12.9172063529        2.2627379948       17.0977524835
  H         6.9511170103        9.5092333848       16.4379219418
  C         6.3901786999        8.0183220782       17.7042604186
  H        14.6703200376        7.3469136042        4.8702182545
  H        14.6963467524        5.7771067438        4.1546909329
  C        15.3728329991        5.7939292986        6.2608727606
  H         7.9488553350        7.6687587288        1.7690539299
  H         8.0143147614        6.0084813659        1.3493211585
  C         6.1559152795        6.5059485200        2.3674066756
  N        11.6337969917       -0.3150896701        1.8256696893
  C        12.1444400495        0.0248259607       -0.3263867939
  C        12.4971621841        2.1783223194       -1.4945452236
  H        12.2318836802        3.9038849223       -0.2885680064
  H        11.8982404362        2.1225413487       17.3543995730
  H        13.1378964799        3.2698180566       17.3463481439
  H        13.4077925648        1.5792611904       17.7545097189
  S         6.0539377967        6.4039467730       18.1802687955
  C         6.3420885027        9.0061755470       18.7933671182
  H        15.3123793298        6.6219586238        7.0562524079
  H        14.8769757123        4.9315579545        6.6689953708
  C        16.8708491088        5.6216483637        5.9140139456
  H         5.7970225440        5.5606108268        2.7936382668
  H         5.6966773629        6.5292431651        1.4024310320
  C         5.4176632493        7.6497189816        3.1755918021
  S        11.8621116246       -1.7955365179        1.2203335935
  N        12.2249240151       -1.3779695368       -0.2617216605
  C        12.4754266444        0.7085915854       -1.5377166587
  H        12.8292569306        2.8664972790       -2.3422507322
  C         6.0133436069        7.0447423341       19.8528013541
  N         6.1165851858        8.3497598792       19.9796247607
  O         6.4470313412       10.2378237178       18.6444348822
  H        17.0283434927        5.1148274006        4.9554480130
  H        17.2674382150        6.6611074432        5.7135446751
  C        17.5858487982        5.0070473726        7.1520708231
  H         4.4900911224        7.3945267959        3.7463095785
  H         6.0853320570        7.8781841844        3.9637246902
  C         5.0526123914        8.7645888712        2.2139540840
  C        12.6925273208       -0.1078969266       -2.6982809766
  S         5.5753663433        6.1121466614       21.2990333192
  C         5.9993819582        9.0499135686       21.3048849274
  H        16.8632725273        4.9831222736        7.9482929793
  H        17.6640830097        3.9224627139        6.8866006932
  C        18.9487791579        5.5642325561        7.5867063771
  H         5.7663686471        8.7700548748        1.4682801614
  H         5.2046013637        9.7700314580        2.6149456436
  C         3.7214006449        8.6178727866        1.4631943522
  H        12.6637361070       -1.1362697955       -2.6406798671
  C        13.2032660215        0.1718372774       -3.9548924484
  H         5.6450122805        8.6578635055       22.2239979564
  H         5.4638993665        9.9856546001       21.1895825102
  C         7.4826751565        9.4054046833       21.7839816634
  H        19.4055412968        4.9198296954        8.4256606487
  H        18.8582530290        6.5728685038        7.8398740941
  C        19.7811926298        5.5348824916        6.4013179222
  H         3.7428156851        7.7756598119        0.7405260978
  H         2.8592798831        8.3706124976        2.0742969232
  C         3.4732942191        9.8014324416        0.5611459253
  S        13.6171324928        1.7262431902       -4.6217562415
  C        13.3129215890       -1.0403742911       -4.9015299500
  H         7.3223469038       10.3477569564       22.3345885327
  H         8.2055132225        9.5220421778       21.0018969633
  H         7.7583418957        8.6081520011       22.4764230335
  H        19.4548157031        6.3319412990        5.6793566133
  H        20.8778335569        5.7431833748        6.5763684793
  H        19.5434748814        4.5154032642        5.9983287218
  H         2.6090918144        9.6287960956       -0.0560001675
  H         3.1059866105       10.6035033504        1.1388550822
  H         4.3146177730       10.1677682780       -0.0072412993
  C        13.9426723304        0.7272500302       -6.0348650249
  N        13.7380253527       -0.6157987837       -6.0699325697
  O        12.9381944158       -2.1620197750       -4.5791069446
  S        14.4433905273        1.5144913214       -7.5821235588
  C        13.9554648348       -1.4844437649       -7.1953500206
  H        14.0549128706       -2.4802979632       -6.8103459861
  H        14.9135445291       -1.2316353858       -7.5270598148
  C        12.8239338070       -1.4765033771       -8.1569784223
  H        11.9253354066       -1.1806537511       -7.5703247748
  H        12.5564199470       -2.3114276214       -8.6985882954
  H        12.9526899792       -0.7341446115       -8.9070779198
  H        -1.5399396293       14.7742553999       16.0475882271
  C        -2.4574855443       14.2913854437       16.4861059897
  H        -3.0700725852       15.2218759370       16.7606784468
  C        -2.1236820063       13.3969402528       17.6836109171
  C        -3.1257068789       13.5290758668       15.2939836223
  C        -2.1744560507       14.2440747583       18.9938039839
  H        -2.7590784042       12.5847138047       17.7363436169
  H        -1.0920486932       12.9610421335       17.6064020928
  H        -2.5009714647       12.8013353937       14.8710328554
  H        -4.0699670895       13.0320477070       15.6099249533
  H        -3.3944518549       14.2097955326       14.4052213252
  C        -1.6424667889       13.4377472492       20.1656201496
  H        -3.2015276715       14.4260816217       19.2160049089
  H        -1.5501341074       15.0836420199       18.7374320672
  C        -2.3340976784       13.6329797434       21.4745590658
  H        -1.8814233727       12.4342926199       19.8516255836
  H        -0.5503632956       13.4474847367       20.2594798235
  C        -1.3890451425       13.0654208815       22.5059971047
  H        -3.3172902022       13.1428306703       21.6058453400
  H        -2.4705141156       14.6956321438       21.6191413925
  C        -0.1436097378       13.9132727784       22.7928004322
  H        -1.9389200831       12.9635865395       23.4405372866
  H        -1.0360931351       12.0257824272       22.2458779743
  C         1.1786585574       13.1384901003       23.2614252732
  H         0.1804719569       14.5564810843       21.9817704541
  H        -0.4792476865       14.5334684837       23.6168427845
  C         1.5140136081       11.7966917691       22.5431953733
  C         0.7879091517       12.4251994160       24.5105348743
  C         2.3386946401       14.1576577973       23.4867099982
  C         1.3118252194       10.7079808462       23.3369149647
  C         1.9016580879       11.3962080859       21.2714259395
  C         0.8570273648       11.0781668666       24.5700444130
  C         0.3806175368       13.0059372218       25.7398153338
  H         2.3996250475       14.7256849220       22.5493809364
  H         2.1250601802       15.0017455125       24.1157890763
  C         3.7208967346       13.5169820059       23.9305690032
  S         1.8733883699        9.2372150308       22.5578935477
  C         2.1044450129       10.1021178037       21.1319623521
  H         2.0491079273       12.1861464025       20.5574609266
  C         0.5713306684       10.4722734351       25.7545114123
  H         0.2067768108       14.1016291957       25.7672736508
  C        -0.0745040171       12.3282150069       26.8443846912
  H         3.9381182548       12.7940908527       23.1793217566
  H         3.6612857407       13.1002921714       24.8970827329
  C         4.8195974062       14.6339149180       24.0312217016
  C         2.4269103745        9.4086183575       19.8847817475
  C         0.0263402954       11.0089604202       26.9102344722
  H         0.5228544745        9.3740636883       25.7723949857
  C        -0.4761991792       12.7741006478       28.0654266516
  H         5.6655242572       14.2937174367       24.6684163265
  H         4.2860256952       15.5036208115       24.4446082543
  C         5.4094002347       14.9957519923       22.6532515729
  C         2.5707493954        7.9853782018       19.7401060930
  C         2.7921100150       10.2133031907       18.7376993536
  C        -0.4292037040       10.3269202173       28.2146072205
  C        -0.6954588219       11.7262975030       28.8710329942
  S        -0.8216562034       14.2962052599       28.7756521024
  H         5.9843726533       15.9080630109       22.7278171136
  H         4.6637953611       15.1501114016       21.8836565120
  C         6.4770869275       14.0839710110       22.1898503023
  N         2.3824252329        7.0563914491       20.6739972538
  C         2.8086223920        7.4368803814       18.4773070797
  C         3.1537613002        9.6300731296       17.5281692987
  H         2.8279613063       11.3474914183       18.8008071924
  C         0.6485543454        9.4248812329       28.9086097114
  C        -1.7436008088        9.5436109934       27.9284590506
  C        -1.1518122611       12.1755240963       30.1304813796
  C        -1.1698582967       13.5643165848       30.2336812127
  H         7.3423343356       14.6653741962       22.0225447962
  H         6.6768852092       13.3604779290       23.0195625086
  C         6.1372594929       13.4298121051       20.8364000329
  S         2.3961557033        5.5666823998       19.9614662874
  N         2.7262468735        6.0645753421       18.4530451819
  C         3.0815149339        8.2059402010       17.2864937553
  H         3.3228957320       10.2813481769       16.6765967755
  H         0.7054706967        8.5349362064       28.2448553649
  H         0.2561551021        9.1186198156       29.8907466838
  C         2.1123653948        9.9403237620       29.0721168148
  H        -1.6157270814        8.7816739167       27.1335675830
  H        -2.1257773944        8.9334906720       28.7618527845
  C        -2.9162295192       10.3535537408       27.3832652502
  H        -1.2993685079       11.4150130504       30.8113857339
  C        -1.5237132144       14.2998105004       31.4959801571
  H         5.4784232110       14.0078222648       20.2376540005
  H         5.6957582514       12.4566953339       20.8921851493
  C         7.3851524788       13.2125596840       19.9645436675
  C         3.1690248901        7.4602347984       16.0409967501
  H         2.7770579715        9.2968820617       28.5197899919
  H         2.1613927405       10.9117045013       28.6210347329
  C         2.5527188646       10.0103181549       30.4798656068
  H        -2.5194231298       10.7516195645       26.4505197125
  H        -3.0397777372       11.1320287577       28.1454906927
  C        -4.2416705481        9.6303781108       27.0817808011
  C        -1.6644143905       15.6928353716       31.5864750676
  C        -1.8495939069       13.5332382486       32.6797841848
  H         8.2692130842       13.8290141240       20.2029481428
  H         7.6287706929       12.1450581202       20.0155491890
  C         7.0261531670       13.4847883880       18.4859595125
  H         2.6240172558        6.5864365866       16.1479065665
  C         3.5927700828        7.8956551849       14.8244899021
  H         2.1971582291        9.1464370598       30.9881706199
  H         2.0010026487       10.8043314730       30.9415854349
  C         4.0768482359       10.3240189783       30.6584095372
  H        -4.1400984994        8.6377001929       26.6634691698
  H        -4.8643760016        9.4505596776       27.9878846514
  C        -5.0984627111       10.4484175565       26.1674041651
  N        -1.3947137346       16.5658453250       30.5060556940
  C        -1.9425496383       16.3349297939       32.7842357800
  C        -2.0406374105       14.1383420936       33.9006481706
  H        -1.6243710141       12.4937158846       32.6941440779
  H         6.1410315001       12.9863048125       18.1656982858
  H         6.8065402150       14.5676771440       18.3942467385
  H         7.9245510318       13.2734132796       17.8373069435
  S         4.0197122710        9.4844645516       14.3587188010
  C         3.5515471057        6.9428212128       13.6500619652
  H         4.4277477483       11.0575313139       29.9297954690
  H         4.2255949013       10.7566632624       31.6277090239
  C         5.0172041904        9.0223204318       30.4416546319
  H        -4.5592339094       10.4461276412       25.2295144169
  H        -5.1124433448       11.4445875870       26.6848823696
  C        -6.4637059188        9.8011399851       25.9185475557
  S        -1.4737571019       18.1032305870       31.0916661037
  N        -1.9059374974       17.7024672156       32.5990204252
  C        -2.1187800875       15.5992883475       33.9601597603
  H        -2.0294402216       13.4227179619       34.6905573285
  C         4.1911308515        8.8858203630       12.7559320292
  N         3.9965832826        7.5371720917       12.5891565485
  O         3.1210057393        5.7967732638       13.7401568010
  H         6.0035085626        9.5917054602       30.4191208944
  H         4.9327160590        8.4931577413       29.4489831450
  C         5.0147422727        8.0148505866       31.6183188985
  H        -6.2977759796        8.8176648817       25.6097326297
  H        -7.0748450246        9.7205804669       26.8601251586
  C        -7.2539774117       10.6043572606       24.9233111182
  C        -2.2264923216       16.2880434354       35.1542063623
  S         4.5241706087        9.8900112158       11.3048504308
  C         3.9325376235        6.8076701406       11.2646032825
  H         5.6244589617        8.4627992226       32.3689552101
  H         3.9963186083        7.9010206785       32.0761268849
  C         5.6203114480        6.6761843994       31.1235509333
  H        -6.7677975526       10.8255245589       23.9496388623
  H        -7.7109798430       11.5685018907       25.2988043350
  C        -8.6169448953        9.9252272286       24.5734867178
  H        -1.9373949171       17.3200407474       35.0561355760
  C        -2.6621042666       15.9177264668       36.3968622766
  H         4.7286984318        7.2890397206       10.6544270143
  H         4.2146596915        5.7589007613       11.3575811522
  C         2.5924421953        6.7844342856       10.6121812625
  H         5.2977235221        6.4203975687       30.1506537597
  H         5.1405013621        5.9761245307       31.7156895140
  C         7.1664285330        6.5231765381       31.2711983651
  H        -8.9363601322       10.5742441336       23.8398792531
  H        -8.4117075185        8.9067673025       24.2253916378
  C        -9.6744580313        9.8909423875       25.7130140308
  S        -3.2570494639       14.3575123853       36.7555708472
  C        -2.7191323595       16.9077702093       37.5030832896
  H         2.8343787340        6.7849940966        9.5684167032
  H         2.0240203543        5.9202904200       10.8428373635
  H         1.9904426511        7.6540282782       10.8681180540
  H         7.4152745278        5.4857124583       30.9332298957
  H         7.2420087092        6.6008236418       32.3431690298
  H         7.7165714931        7.2980677928       30.8005952586
  H       -10.0369308424       10.9240123599       25.8650746077
  H        -9.2595227443        9.5177214365       26.6516216157
  H       -10.5174155872        9.1895647090       25.5150507904
  C        -3.7794114360       15.0249754012       38.3007128757
  N        -3.4017663248       16.3429036731       38.5159445140
  O        -2.2323827251       17.9796905562       37.4510201813
  S        -4.4983036654       14.2208320355       39.5880958131
  C        -3.5668330676       17.0520234279       39.7347061891
  H        -3.3476364489       18.0726820550       39.5541427331
  H        -4.5899684357       16.9501366549       40.0782740967
  C        -2.4963678336       16.6871574012       40.8465081682
  H        -2.8731735771       15.9369429471       41.4994574508
  H        -1.6309883889       16.2216889355       40.3986718754
  H        -2.2106979469       17.4584385086       41.5674315593
