352
i=
  H         2.1807286438        3.8230686684       12.0906563049
  C         2.6808507985        2.9392275433       12.5767057719
  H         2.1056478844        2.0418215715       12.2039173657
  C         4.1159107659        2.8483955963       12.2128176733
  C         2.5573050111        3.1051550016       14.1505076262
  C         4.3605465258        2.9163910317       10.7156184830
  H         4.5370956180        1.8850316018       12.5093359369
  H         4.7416572736        3.5851708560       12.7015471693
  H         1.6642369338        3.7632171485       14.3873001427
  H         3.3759819572        3.5796637970       14.6969822923
  H         2.4034288370        2.0997287449       14.6373691027
  C         4.6874731017        1.5073372803       10.0843809017
  H         3.4437287666        3.3490528131       10.2546358030
  H         5.2147257054        3.5706159748       10.5213070782
  C         5.1904167641        1.8278831293        8.5981720514
  H         3.8706135097        0.8292416465       10.0917124977
  H         5.4998108137        1.1410444993       10.6600732578
  C         6.6204299222        2.5178919160        8.4073309386
  H         4.4115900274        2.4759840455        8.1405254370
  H         5.1708442478        0.8334557803        8.1757797892
  C         7.7785222821        1.8723711995        9.2677794346
  H         6.9640114769        2.2456121682        7.3527103049
  H         6.6184212087        3.6048730370        8.3485290149
  C         9.1699579835        2.6909421498        9.2559656788
  H         8.0326769382        0.9401678710        8.8891417716
  H         7.5462304450        1.6526428383       10.3031975218
  C         8.8001169214        4.0363624977        9.8963738347
  C         9.5886618039        3.4219604897        7.9878258701
  C        10.3014160976        2.0087249375       10.1011623932
  C         8.9431812234        5.1301317425        9.0140934332
  C         8.1702297682        4.4146813178       11.0846499544
  C         9.5398174998        4.7441470169        7.8513441591
  C        10.1044925943        2.7684272901        6.8600474775
  H         9.9375568751        1.5793487675       11.0064847842
  H        10.6136180697        1.0767549324        9.5884599717
  C        11.4927332649        2.9859683376       10.3721561835
  S         8.6579759829        6.6820549740        9.7733133730
  C         8.1393836999        5.7666619866       11.1945507848
  H         7.9127578557        3.6566519937       11.8051646883
  C         9.9983018401        5.3810363270        6.7133380359
  H        10.1674955055        1.7050004101        6.8536216445
  C        10.5497790797        3.3995070202        5.7918787197
  H        11.1219187324        3.7985047675       10.9421526351
  H        11.8099655784        3.2343194463        9.3733745509
  C        12.6326127864        2.3522292897       11.1330650445
  C         7.7499465472        6.4880726864       12.4517683091
  C        10.5907524447        4.7469533002        5.6433315828
  H         9.8112706162        6.4177829463        6.6374974464
  C        10.9994756765        2.9379695836        4.5759826215
  H        13.5544796341        2.7832905711       10.7683095744
  H        12.6351780278        1.2042350477       10.9279114498
  C        12.4794334199        2.6300536638       12.6156248468
  C         7.8220705616        7.8747340932       12.7021043253
  C         7.2515758214        5.6833626575       13.6080876225
  C        11.0236147116        5.3423373629        4.3487171284
  C        11.3152337368        4.0103749530        3.7449699787
  S        11.2545500770        1.4389517305        3.9447190486
  H        12.5703557946        3.7137899606       12.8655339822
  H        11.4093150850        2.4178625233       12.8452486554
  C        13.4226948298        1.9648578701       13.6252038113
  N         7.9857414156        8.8468073670       11.7860324755
  C         7.4279848824        8.4638906185       13.8915956626
  C         6.8593212897        6.2314618761       14.8153916387
  H         7.3192919707        4.5310314743       13.5627981159
  C        12.3862905224        6.1404910768        4.4182571071
  C         9.9532875680        6.1357414392        3.5740538814
  C        11.5856296254        3.5506165416        2.4305099569
  C        11.6486224890        2.1852201022        2.3833102126
  H        14.3790989242        2.4784024833       13.6408855534
  H        13.8075918190        0.9381973886       13.3043227340
  C        12.8096649778        2.0347035938       15.0163070117
  S         8.0373819024       10.3440286173       12.4676289315
  N         7.6444831818        9.9157111635       14.0009491082
  C         6.9444080857        7.7097220481       15.0364957764
  H         6.4895800350        5.6017899733       15.6658208946
  H        12.1548369445        6.8105071169        5.2424287773
  H        12.5411391332        6.6644554121        3.4727758864
  C        13.6233602606        5.1793487609        4.6335507161
  H         9.6060986572        7.0015101647        4.1651332744
  H        10.4344869816        6.6965695106        2.7818065309
  C         8.7135143341        5.3347713009        3.0597691135
  H        11.8031658082        4.3216167791        1.7126677212
  C        12.0164897693        1.3565542293        1.1979959627
  H        12.1599809565        2.8854081910       14.9951166210
  H        12.1796856607        1.1828460764       15.3192322107
  C        13.7913382042        2.5185720515       16.0506162136
  C         6.7100187564        8.3407826544       16.2963491916
  H        13.4983281242        4.3861807524        5.4001990961
  H        13.9239037398        4.6550779210        3.7244433017
  C        14.8268164703        6.0155529948        4.8604201249
  H         8.3251551248        4.8570979267        3.9240231554
  H         8.9543349893        4.6777145987        2.2102918916
  C         7.6569075584        6.3155155408        2.6052257016
  C        11.9754602484       -0.0678311288        0.9611946520
  C        12.2952896774        2.1749103903       -0.0353030036
  H        14.3995255436        3.3516971538       15.6547843700
  H        14.4012682230        1.6822313845       16.2222517453
  C        13.2160212998        2.8222952678       17.4110017122
  H         6.8449857413        9.4007329598       16.3197330475
  C         6.4508428129        7.9313286081       17.5776932012
  H        14.4406514263        6.6762982151        5.6111511352
  H        15.0681635417        6.5950677430        3.9452032568
  C        15.9817927324        5.2697603030        5.4661045108
  H         7.3711265502        6.9902413227        3.4293804895
  H         8.0861273785        6.9133048897        1.8351085357
  C         6.4296401521        5.6444318013        2.0730902183
  N        11.7837926199       -1.0005937482        1.9982827538
  C        12.2852997881       -0.6500705971       -0.2449604866
  C        12.4892570146        1.5117394054       -1.2494135813
  H        12.3403661230        3.2414493604        0.0037712385
  H        12.3459912301        3.4620846994       17.4604112687
  H        13.9641859154        3.4176975270       18.0187890008
  H        12.9363999705        1.8705288808       17.8918941677
  S         6.0996008679        6.3632629398       18.1105323810
  C         6.3035318172        8.9572687614       18.5965036316
  H        15.5089980288        4.5030888369        6.1299912214
  H        16.5259012908        4.7211452873        4.7336904722
  C        16.8845496832        6.1436734938        6.3296786746
  H         6.2220230986        4.8017321235        2.6632065135
  H         6.6805072199        5.2429332969        1.1074298599
  C         5.1850729898        6.5261068911        1.9484718973
  S        11.8024823717       -2.5093871490        1.3621451116
  N        12.2544652977       -2.0439434137       -0.1814665024
  C        12.5459894426        0.0380486458       -1.4455624368
  H        12.6505369859        2.1174121857       -2.1260107255
  C         5.6994833289        7.0730893239       19.6204740607
  N         5.9334389662        8.3686833735       19.7166252202
  O         6.3306621204       10.1445149198       18.3564241225
  H        17.3737992694        6.8866343082        5.7536005711
  H        16.2390164595        6.6823348257        7.0434646470
  C        17.8116449250        5.3869821631        7.2120171969
  H         4.3581141448        5.8782503925        1.5528477124
  H         4.8499261698        6.7141060912        2.9138631269
  C         5.4121023394        7.8148501844        1.0699024386
  C        12.8858416156       -0.6968573647       -2.5793651976
  S         5.2084299320        6.2202321385       21.0793942504
  C         5.7800115053        9.1317975190       20.9369452865
  H        17.3209319086        4.9893617777        8.1181456739
  H        18.0431937362        4.4085173732        6.7530722057
  C        19.1366896003        6.1021353559        7.4844730830
  H         5.2370442590        7.6335272212        0.0436596837
  H         6.3976994320        8.3144938461        1.1093943334
  C         4.4100091506        8.8395780463        1.4450427486
  H        12.7142685738       -1.7426926446       -2.5586434167
  C        13.3218210424       -0.2834891840       -3.8333276938
  H         4.8249426203        9.1042284159       21.4696880152
  H         5.8147376793       10.1620913458       20.6601239871
  C         7.0395142960        8.8735780509       21.8273065388
  H        19.7455625718        5.4609939360        8.1326711090
  H        18.8858548341        7.0191201999        7.9733136164
  C        19.9097109045        6.2844296105        6.2305941187
  H         4.2924767583        9.5899839617        0.6273330236
  H         3.4070106260        8.3596023646        1.4197647329
  C         4.6424436706        9.5501378984        2.7970186083
  S        13.7030829524        1.2869225681       -4.2150294121
  C        13.3806019601       -1.2650010318       -4.9476930798
  H         7.4782709698        7.8991513667       21.7461415099
  H         6.8070550856        9.1496869833       22.8328413492
  H         7.8905432058        9.5085068449       21.5201953396
  H        19.6691212674        7.1150568978        5.6708404199
  H        20.9794717013        6.4133661167        6.4597322931
  H        19.8515761684        5.4376706903        5.5568307778
  H         4.4012081888       10.5571298120        2.6762832928
  H         4.1015372399        9.0577825227        3.6417485311
  H         5.7187988117        9.6152026539        3.0594513450
  C        14.1370772027        0.7029132046       -5.8165162492
  N        13.8966147086       -0.6130004429       -6.0146510576
  O        13.0768500724       -2.4619858754       -4.7951675172
  S        15.0770891364        1.6414211640       -6.9634613283
  C        14.0760629489       -1.2765065451       -7.3665435807
  H        14.5933901355       -2.2145645213       -7.0962930687
  H        14.6820313830       -0.6552597109       -7.9833614297
  C        12.8139471353       -1.4911852895       -8.1178010839
  H        11.9097531769       -1.5725515302       -7.5057457461
  H        13.0593766161       -2.2830843822       -8.7896139606
  H        12.7313289950       -0.6283899714       -8.7732366039
  H        -3.7334308101       15.0942410241       16.6104622718
  C        -3.4920227439       14.0366439401       16.5589920089
  H        -4.4641192260       13.5734861028       16.8652414832
  C        -2.4253144539       13.8601037953       17.5819559006
  C        -3.0561166301       13.7023320348       15.1699660012
  C        -2.9478188524       13.8174017870       19.0682675865
  H        -1.7165299015       13.0235364973       17.5012068436
  H        -1.7653308977       14.7088399797       17.5093801652
  H        -2.0783685571       13.2312022846       15.1585528829
  H        -3.7280455564       12.9671525716       14.7036325659
  H        -3.1570556589       14.5556437413       14.5507898999
  C        -1.7379418212       13.7950546602       19.9603175323
  H        -3.6346767237       13.0711430145       19.3285951311
  H        -3.4472866364       14.7393892803       19.2058261462
  C        -2.1453371514       13.4739873145       21.4365082675
  H        -0.9720057523       13.0028933525       19.6766904408
  H        -1.2140917467       14.7723752458       19.8771317191
  C        -1.0631726735       13.0152721401       22.3672273943
  H        -2.7587511533       12.5889765769       21.2997520863
  H        -2.8151084178       14.2658915616       21.8072272809
  C         0.0981253661       13.9722838366       22.6493970912
  H        -1.5485153539       12.6242473793       23.2899717561
  H        -0.7439381193       12.0836209491       21.8640932048
  C         1.2268091200       13.2893953863       23.4375593189
  H         0.4298367519       14.4597441989       21.7686238478
  H        -0.2572628033       14.8609293715       23.2620739839
  C         1.5966185798       11.9154153005       22.7291018711
  C         0.9550786285       12.5519762113       24.7198628974
  C         2.5117420884       14.1600819067       23.6984028177
  C         1.4767888336       10.7950632495       23.5619100431
  C         2.0017685546       11.5338815991       21.4186161850
  C         1.0190584470       11.1643834512       24.8264343910
  C         0.3908364984       13.0674799364       25.8129323991
  H         2.7167696801       14.7101152402       22.8167856725
  H         2.4864086171       14.8932691173       24.4813535819
  C         3.8161171383       13.3021637490       23.8126406941
  S         1.6166978998        9.2685946705       22.7777631330
  C         2.0829916847       10.1182003368       21.3455313592
  H         2.1710336282       12.2333749784       20.5851566161
  C         0.5736787759       10.5235061796       25.8928425927
  H         0.2517963257       14.1189330987       25.8979529734
  C         0.0799816888       12.4186226149       26.9596916316
  H         4.1230722360       12.5851843718       22.9822289901
  H         3.7436452828       12.8341394999       24.8083938614
  C         5.0737894347       14.2453440055       23.6790079739
  C         2.3824015756        9.3539677839       20.0905131803
  C         0.1059376733       11.1091843609       27.0324601708
  H         0.7775671196        9.4658754916       25.9250213521
  C        -0.4361423666       12.8689792829       28.2289020583
  H         5.9946095654       13.8138378352       24.0478333873
  H         5.0345001989       15.0710517577       24.3102773693
  C         5.4831727034       14.7457535956       22.3088988248
  C         2.2278165265        7.9770363385       19.7739064918
  C         2.9712720107       10.1748527259       19.0086490811
  C        -0.2063833724       10.3825657177       28.3404750405
  C        -0.5933505350       11.7231378332       29.0285500114
  S        -0.6933680063       14.3572483059       28.9748388981
  H         5.9520464154       15.7387402677       22.5975774254
  H         4.5742835933       14.8762906442       21.6913193939
  C         6.6274774662       13.9567467676       21.6709261214
  N         1.6843857200        6.9923191012       20.6391186881
  C         2.5729777178        7.4783221101       18.5219835811
  C         3.3137276852        9.6566782259       17.7590519066
  H         3.3090873919       11.1828159981       19.2330839742
  C         1.0032310506        9.5910910831       28.9304046848
  C        -1.3538640204        9.3702165240       28.1369571000
  C        -1.0577867658       12.1331919040       30.2992232363
  C        -1.1188861274       13.4715513369       30.4605309006
  H         7.2727033253       14.6441760970       21.2186115681
  H         7.1265152302       13.4038153343       22.4442319979
  C         6.0808907344       13.0275355914       20.6031363312
  S         1.5712830100        5.5743280738       19.8130063961
  N         2.2148091661        6.0955077622       18.4475044730
  C         3.0073785350        8.2559944378       17.4353925612
  H         3.9421357596       10.2360970745       17.1082555452
  H         1.4087631391        8.9588678239       28.1747917953
  H         0.6407931610        8.9453285509       29.7297104714
  C         2.1576988916       10.4540506105       29.4195050494
  H        -0.9254582305        8.6169137206       27.4275660201
  H        -1.6085810124        8.8040972558       29.0201521394
  C        -2.6450031943        9.9513069288       27.4736485794
  H        -1.4089116305       11.4055899613       30.9975251475
  C        -1.5014717902       14.2158269119       31.7045326733
  H         5.1922007732       12.5590518581       20.8296736326
  H         6.7435860808       12.1489539145       20.5782448500
  C         6.1335703139       13.6779407766       19.2156869330
  C         3.1973712552        7.6027387844       16.1912194576
  H         2.5627484362       10.6995290519       28.4995056365
  H         1.8225774299       11.3174491745       29.9277641659
  C         3.1316815395        9.7946883079       30.3928812961
  H        -2.4929401840       10.5033604988       26.4865728691
  H        -3.1463640097       10.6648866972       28.1818399588
  C        -3.7147217741        8.8463188509       27.1319332334
  C        -1.5676416379       15.6224024156       31.9165076283
  C        -1.7760744354       13.4058616234       32.9621459963
  H         6.3444501308       14.6833773236       19.3459303410
  H         6.7949342186       13.2565272734       18.5364249091
  C         4.8016268120       13.5231890719       18.5643996472
  H         3.0175008989        6.5572476748       16.2373990512
  C         3.5737596749        8.0399144584       14.8868803886
  H         3.2208934653        8.7030554336       30.2583449160
  H         2.6814164862        9.9477995730       31.4013392898
  C         4.4821038560       10.5595376257       30.2656246972
  H        -3.4483917645        8.3039576088       26.2629898605
  H        -3.5861919884        8.1254796336       27.8406912134
  C        -5.2089527726        9.2724270803       27.1396942794
  N        -1.3044511523       16.6300333788       30.9182974763
  C        -1.9323255163       16.1981514992       33.0731367304
  C        -2.0692995325       14.0039867762       34.1819167641
  H        -1.5439374407       12.3610819829       32.9090278981
  H         4.5603918124       14.3087284472       17.8296359463
  H         4.7143787421       12.6303543775       18.0471796581
  H         3.9626753809       13.5453239956       19.2885230397
  S         3.8394122990        9.6698403968       14.3946119643
  C         3.6427211089        7.0030911549       13.8510522548
  H         4.4505951404       11.4069750354       29.6384471205
  H         4.7734141206       11.0146634678       31.1861542524
  C         5.6824657203        9.6501608556       29.8327688205
  H        -5.3928017654       10.0751941220       27.8576920336
  H        -5.8980276941        8.5178740462       27.5165258811
  C        -5.5225868415        9.7236222801       25.7114270356
  S        -1.5383491209       18.0971936728       31.5171054676
  N        -1.9806002856       17.5722693537       32.9955538586
  C        -2.2609558245       15.4605249583       34.2305309436
  H        -2.1744912487       13.4413957907       35.0734597856
  C         4.0261105675        8.9491164617       12.8207895412
  N         3.9334803594        7.6060972540       12.6806637441
  O         3.5056202606        5.8213004869       14.0201134329
  H         6.5965736233       10.2101998590       29.4838149117
  H         5.2471390269        8.9543720744       29.0692850426
  C         6.1985662278        8.7290083884       30.8508987581
  H        -4.7007827772       10.3463388217       25.3653865684
  H        -5.5304958589        8.8353382803       25.1140824713
  C        -6.7827690057       10.6464963843       25.6859331474
  C        -2.4270054388       16.1556629323       35.3928215624
  S         4.4741186152        9.9138118405       11.3802262985
  C         3.7276669026        6.8746940067       11.4465564770
  H         6.7398105485        9.2540520369       31.6164124648
  H         5.3640164401        8.3907404347       31.4129702018
  C         7.2012836184        7.6601392228       30.4719514502
  H        -7.2079819865       10.9770383702       24.6716253531
  H        -6.4900955792       11.5943083037       26.1218382989
  C        -7.9294857129       10.1621609310       26.5257121626
  H        -1.9579531910       17.0871322889       35.3515073493
  C        -2.9438163500       15.9383472724       36.6565146761
  H         4.3243487937        7.2846666464       10.6226382002
  H         4.0842714192        5.7837752835       11.4395138512
  C         2.1725047307        6.6852513738       11.1424748354
  H         8.1177391122        7.6411779890       31.0960120158
  H         7.4990334069        7.7593527799       29.3805151365
  C         6.6054748815        6.2742478164       30.7196844264
  H        -7.9692519796        9.0941373851       26.3905673802
  H        -7.7962217079       10.5223641930       27.5087980508
  C        -9.2138300517       10.6582121075       26.0237307457
  S        -3.5579319829       14.4729385667       37.2166257461
  C        -3.0729330403       17.0437874198       37.5771552726
  H         1.8250517296        5.8563302739       11.7472418172
  H         1.6357349938        7.6968424868       11.3104035356
  H         2.0879252071        6.4557625098       10.0518553832
  H         7.3451639947        5.5913952730       30.9154082484
  H         6.0463905995        5.7891311859       29.9411861211
  H         5.9658767715        6.3472710916       31.6274425753
  H        -9.4408923915        9.9274922374       25.2079092374
  H        -9.0453729676       11.6560073011       25.5573930788
  H       -10.0190074724       10.7869588052       26.7432683851
  C        -3.8820667100       15.3472915367       38.7237366772
  N        -3.6400680470       16.6596054913       38.7395458850
  O        -2.5042369465       18.1302349795       37.3971128793
  S        -4.5988678889       14.5337768944       40.1423657919
  C        -3.7388629644       17.5098412252       39.9032541577
  H        -3.9776794726       18.5287599997       39.6321884049
  H        -4.5627230452       17.1517311849       40.4828716844
  C        -2.4784667387       17.4739715493       40.8001900066
  H        -1.7109517303       16.8166142039       40.4939232942
  H        -2.0872251022       18.4764390405       40.8186369852
  H        -2.7867513863       17.1418940504       41.7868577873
