352
i=
  H         4.6448727237        1.8429642893       12.1796730585
  C         3.7594980223        2.4833482417       12.3070377138
  H         4.1957590832        3.4785567021       12.4398335124
  C         2.9447993711        2.6999247701       11.0814151483
  C         2.8849070750        2.0013348872       13.4191252669
  C         3.9059180705        3.0250973193        9.9370100690
  H         2.2076235955        3.5436924159       11.1102981945
  H         2.4614144232        1.7623049966       10.8873761106
  H         3.3265521628        1.8200672972       14.4108872041
  H         2.2511304238        1.2153134997       13.0377002954
  H         2.2359554762        2.8072747810       13.8585085941
  C         4.6147040953        1.7511664133        9.4987651415
  H         3.4096628869        3.4334479696        9.0471561462
  H         4.5875081894        3.6974426867       10.3026779934
  C         5.4066399410        1.8602596338        8.1638654968
  H         3.9527284385        0.8996629000        9.3764562549
  H         5.3833036636        1.5779145625       10.1959666739
  C         6.7534586923        2.6728532813        8.2303508343
  H         4.7845158569        2.2158388772        7.3672545017
  H         5.6252329684        0.8734804060        7.6896189809
  C         7.9628421698        2.1013624448        8.8849791496
  H         6.9670474753        3.0766517230        7.2771763722
  H         6.4225851210        3.3769239434        8.9311271917
  C         9.1642284291        3.0536840422        9.1694921186
  H         8.3049192174        1.2676387738        8.2417516791
  H         7.8634563486        1.6233879752        9.8984348188
  C         8.7979050804        4.3785369036        9.9102027968
  C         9.6500736617        3.8183489568        7.9864341551
  C        10.3439964045        2.3098330801        9.8526915537
  C         8.9845764820        5.5023535374        9.0965167527
  C         8.2513926220        4.7197327290       11.1212280420
  C         9.5078517317        5.1937511780        7.8648712750
  C        10.0532132977        3.2474119428        6.7746460153
  H         9.8796564335        1.8591279618       10.7082718145
  H        10.6869962150        1.4752451895        9.1920115214
  C        11.5365033478        3.1701313960       10.2031029687
  S         8.4658565781        6.9320637467        9.8145027169
  C         7.9805985788        6.0610418273       11.2863149679
  H         8.0902600716        3.8974653552       11.7899254567
  C         9.9356122830        5.8188822701        6.7385725443
  H        10.1063181111        2.1446025046        6.6376464931
  C        10.2028268687        3.9217383960        5.5772156745
  H        11.3601801512        4.2169645600       10.4587210582
  H        12.1523716149        3.1851938726        9.3339625315
  C        12.3822775291        2.4482291577       11.2548295832
  C         7.3885072564        6.6865777315       12.5288972999
  C        10.2553487887        5.2570328759        5.4968778921
  H         9.9303915065        6.9242749968        6.6284946565
  C        10.5955356827        3.5499490152        4.2933272981
  H        13.3575992805        2.5348091144       10.9216519410
  H        12.1127343949        1.3955573456       11.1096506241
  C        12.1804662216        3.0001711773       12.6785374378
  C         7.4006600669        8.0550944418       12.8441766180
  C         6.8863838439        5.8150746389       13.6179482484
  C        10.5739468901        5.9794942581        4.2299870198
  C        10.7647917652        4.6528677781        3.5054124339
  S        10.9363169025        2.0676248077        3.5349414959
  H        12.8672047073        3.7955516378       12.9309796352
  H        11.2266251875        3.5289200089       12.4327351321
  C        11.9311527357        1.8504872089       13.7053000726
  N         7.7782649795        8.9990556712       11.9288394603
  C         7.1213458533        8.6089717474       14.0765273663
  C         6.5958605899        6.3478456894       14.8765465993
  H         6.7621455829        4.7533499763       13.4237323523
  C        11.9144054396        6.7130882757        4.3493812088
  C         9.3648232284        6.7979601894        3.6184175186
  C        11.1407498385        4.3511046437        2.1807774888
  C        11.3449131793        2.9498905579        2.0825887426
  H        12.8536837104        1.2267334395       13.7686695713
  H        11.0588424220        1.2739694527       13.3935948787
  C        11.7190979860        2.3549973279       15.1075816868
  S         7.7375360556       10.4474670136       12.6789162260
  N         7.1834109789        9.9929913938       14.1047994588
  C         6.7495288524        7.8295135956       15.1836242930
  H         6.2338351648        5.6275650994       15.5864129318
  H        11.8108614790        7.3242316616        5.2474438027
  H        11.9127105753        7.4147323952        3.4771703723
  C        13.1172350944        5.7970087340        4.4669370914
  H         9.1106335657        7.5642827775        4.3828175562
  H         9.6724718034        7.3899351299        2.7392544065
  C         8.1859533258        5.9800859069        3.1629762844
  H        11.3125018758        5.1507150523        1.4923176906
  C        11.6371410446        2.2534044699        0.8151731353
  H        11.5609534073        3.3824975564       15.0948154929
  H        10.7891766772        2.0585134513       15.5624977306
  C        12.9152777161        2.1432599516       16.0656413098
  C         6.4636041026        8.3896407368       16.4346165565
  H        12.7818592356        4.9797375287        5.0718090562
  H        13.4474224294        5.3621998382        3.5273791327
  C        14.2951983247        6.3767297725        5.2097970688
  H         7.6439130432        5.7423854267        4.0598462747
  H         8.4117641483        5.0443774723        2.6343889979
  C         7.3710774698        6.7624894609        2.1467223157
  C        11.6082535378        0.8555709432        0.7129123343
  C        11.8386776625        2.9724134830       -0.4591669684
  H        13.7189937088        2.7907177093       15.8551068956
  H        13.2206973425        1.1190318509       15.9333096179
  C        12.4438019861        2.2511479882       17.4994209682
  H         6.3498977333        9.4528932392       16.3783137637
  C         6.3049663532        7.8579452443       17.6835133212
  H        13.9326091116        6.7025926809        6.1942132981
  H        14.5596626783        7.2117381112        4.5293098583
  C        15.4557455723        5.4819260015        5.4206568039
  H         7.1741217729        7.6637912768        2.7269953465
  H         7.8955841500        7.0750898522        1.2846959000
  C         6.1101870795        6.0032939368        1.8207682926
  N        11.3112638633       -0.0754449938        1.6599019006
  C        11.8990071786        0.2433176457       -0.4699931741
  C        12.1134317611        2.3087350905       -1.6602201083
  H        11.8858375871        4.0645436567       -0.4827348814
  H        12.6181639583        3.2889773411       17.7769116511
  H        12.9754545667        1.5564453113       18.2321389119
  H        11.3513119657        2.0011412599       17.7165140410
  S         6.1097091009        6.2066694636       18.2321025369
  C         6.3845465251        8.8914246166       18.7452576497
  H        15.1587846886        5.0149099614        6.3010666431
  H        15.5855357626        4.7538041366        4.5452505484
  C        16.7223954417        6.1510462844        5.9250052925
  H         5.8516426151        5.2835150738        2.6077520364
  H         6.2556577221        5.3924578057        0.9416220572
  C         4.8947477104        6.8946172680        1.5477010842
  S        11.4256180568       -1.5913879956        1.1134606974
  N        11.9326765568       -1.1527986565       -0.3316379006
  C        12.2535958461        0.8386734652       -1.7219121302
  H        12.3351218800        2.7681613576       -2.6000194630
  C         6.0489935495        6.9822945352       19.8435329638
  N         6.1685954516        8.3191267384       19.9403770899
  O         6.5151166975       10.0798915172       18.5183587822
  H        17.4311908431        6.2518329507        5.1298685653
  H        16.4514942316        7.1674784188        6.1613225015
  C        17.3206199128        5.5187381023        7.1499520148
  H         5.2031383625        7.6819853181        0.7910274517
  H         4.2586447318        6.3353577099        0.9064036497
  C         4.0871928458        7.4101721154        2.7456931569
  C        12.5483385973        0.0135385385       -2.8705107408
  S         5.7182016863        5.9927593866       21.2746737082
  C         6.2133200412        9.1067109801       21.1370582967
  H        16.5550647841        5.3644399849        7.9590469451
  H        17.5941511028        4.5400275938        6.7467910616
  C        18.5403649704        6.2517678662        7.6553130561
  H         4.7371100421        7.6215317298        3.6513574727
  H         3.3720058506        6.6111608347        3.0958684206
  C         3.2002990922        8.6179166927        2.3845560541
  H        12.2866719759       -0.9991761344       -2.8411979625
  C        13.0840863288        0.3527653680       -4.0868351661
  H         5.9939932930        8.5620696335       22.0186709734
  H         5.4135729144        9.8151896353       20.9884840636
  C         7.6296692373        9.7107483422       21.4112695816
  H        18.9229217676        5.5298422160        8.4587089860
  H        18.3656864539        7.1979365234        8.1007582243
  C        19.7413126195        6.3102943204        6.7220020262
  H         2.7024315782        8.3809410661        1.4502422793
  H         2.3642997457        8.6990067102        3.0204514002
  C         3.8919084693        9.9933324327        2.3417857005
  S        13.4734919872        1.8782083458       -4.7209773502
  C        13.1835567123       -0.7905492031       -5.0804968925
  H         8.4334632704        9.2263257332       20.8419713888
  H         7.7794477549        9.5673077893       22.4400736820
  H         7.6794407743       10.7776476575       21.2367966868
  H        20.5106186250        5.6269199225        7.1757297601
  H        19.6223688954        6.1247582804        5.6597770289
  H        20.1342119748        7.2782074185        6.7235484912
  H         4.5270861041        9.9688162158        3.2029293391
  H         4.6101274209       10.0144731689        1.5072892182
  H         3.1786464687       10.8232669262        2.3981115686
  C        13.9946208129        0.9894145541       -6.2127814303
  N        13.8354024270       -0.3666440981       -6.1773648373
  O        12.9148637725       -1.9596880102       -4.8682039058
  S        14.6136611774        1.5611973340       -7.8081413816
  C        13.8416887814       -1.2559438462       -7.3099209315
  H        14.0019142602       -2.2348742261       -6.9476420358
  H        14.7333613437       -1.1504174880       -7.9582598936
  C        12.5379173228       -1.1802446718       -8.1086479016
  H        12.1409471661       -0.2340077290       -8.0404508661
  H        11.7244795792       -1.8419166581       -7.8400013922
  H        12.6940557904       -1.4032300572       -9.2054080014
  H        -3.1821817605       15.2565637686       16.0208115558
  C        -3.2582750985       14.1806120303       16.0789138391
  H        -4.2529653445       13.8723101750       16.4129342898
  C        -2.3303799398       13.5509196736       17.0332587537
  C        -3.0329503173       13.5407379093       14.6711692724
  C        -2.8477962878       13.7491514098       18.4883649416
  H        -2.3205326643       12.4763398417       16.9070611531
  H        -1.3557414821       14.0257893528       16.9535100553
  H        -3.6862770654       13.8843088287       13.9224749362
  H        -2.0126603833       13.7334488859       14.2388782063
  H        -3.0405232104       12.4309559294       14.6739585993
  C        -1.7765575548       13.4617250879       19.5043118206
  H        -3.6624160962       13.0293957155       18.7291979560
  H        -3.3855973843       14.6946121493       18.5836620047
  C        -2.1666953387       13.7369437320       20.9289823943
  H        -1.5845568052       12.3829094164       19.3193472105
  H        -0.8426414051       13.9570017566       19.1429170258
  C        -1.2853279293       13.1721283421       22.0824556044
  H        -3.1948959752       13.4133987645       21.0908127060
  H        -2.0740144655       14.8727402747       20.9828143087
  C         0.0509133024       13.9691754447       22.3631621905
  H        -1.7978043817       13.1732135361       23.0256680148
  H        -1.0573574279       12.1717190513       21.8389159233
  C         1.2172998311       13.2583604809       23.0620152116
  H         0.4899493915       14.1735371900       21.3945498850
  H        -0.1415967117       14.8836750640       22.8887309796
  C         1.5802162182       11.8954975999       22.3825908583
  C         0.8612230368       12.6564515991       24.3402625686
  C         2.5133128691       14.1546660961       23.0070540667
  C         1.3085591920       10.8059354045       23.1935789513
  C         2.0061407896       11.4112322806       21.1251645630
  C         0.9212841546       11.3057845510       24.4778745257
  C         0.4061623414       13.3238277727       25.4763885914
  H         2.7405192676       14.3924842681       21.9273015552
  H         2.3377447918       15.1258545150       23.4411909259
  C         3.7895620481       13.4962476435       23.5836524242
  S         1.6259361586        9.2621664505       22.5676853880
  C         2.0077358704       10.0607003296       21.0535558075
  H         2.2827440377       12.0578963929       20.3547672023
  C         0.4643357833       10.6732448495       25.5519055017
  H         0.4986016779       14.3963903831       25.3632020381
  C         0.0581230309       12.7044781542       26.6075009422
  H         4.1304768662       12.5605045894       23.1907002060
  H         3.5067031414       13.1856353576       24.6454097102
  C         4.9845704302       14.5239738650       23.7135543549
  C         2.4344559750        9.4048780826       19.7634831243
  C         0.0298951271       11.3757055645       26.7181001852
  H         0.2677650291        9.6698402776       25.5149300907
  C        -0.4097344288       13.1473168748       27.8409842552
  H         5.8292155835       13.9732889228       24.2037495535
  H         4.6311974682       15.3653116362       24.3100265977
  C         5.5206757526       15.1420101565       22.4389741472
  C         2.3067687378        8.0525317590       19.4683723094
  C         2.8324215398       10.1970104800       18.5727545020
  C        -0.4423246704       10.7296778346       28.0463498293
  C        -0.7401260786       12.0414725240       28.6265805099
  S        -0.7428043405       14.6528310265       28.6095543757
  H         6.3629697188       15.8233498904       22.6443921458
  H         4.7848743529       15.6622371305       21.9188376855
  C         6.2234547031       14.0907827157       21.5843012795
  N         1.9604925156        7.1213593759       20.4400012682
  C         2.5102478108        7.4460590517       18.2309923755
  C         3.1268198069        9.6298314411       17.3746326564
  H         2.8465917277       11.2864891416       18.6941438609
  C         0.7290036551       10.0537366435       28.8203869144
  C        -1.7533491745        9.8556778055       27.8867872513
  C        -1.1513170256       12.4209130048       29.9045713560
  C        -1.1870748491       13.7742222379       29.9934052146
  H         7.0883219602       14.5691901880       21.0808378531
  H         6.7409609777       13.3302021740       22.2243531783
  C         5.3947366292       13.3981686484       20.5331952928
  S         1.9120266365        5.6534279425       19.6863057859
  N         2.4263763421        6.1002524812       18.2957559642
  C         2.9048356304        8.1945419034       17.1037447541
  H         3.4078561810       10.3022415042       16.6220377122
  H         1.0275972953        9.2267684514       28.2019872840
  H         0.3567850418        9.5446290497       29.7368462930
  C         1.9848220439       10.7775502107       29.2342367183
  H        -1.4987347799        8.9163228951       27.3420512202
  H        -2.0261154490        9.3936299074       28.8365492943
  C        -3.0289319734       10.5325499768       27.4694401889
  H        -1.4247188077       11.7085875922       30.6140370667
  C        -1.5313138195       14.5109350436       31.2732239511
  H         4.3411048341       13.7442360484       20.5912291177
  H         5.2613726047       12.2756543217       20.6819216204
  C         5.9036358289       13.6181848666       19.1035162078
  C         3.0032293620        7.5642791160       15.8706851092
  H         2.3803744965       11.2839258316       28.3129074050
  H         1.8934346664       11.6614488791       29.8766852827
  C         2.9851366918        9.7295652104       29.6844720211
  H        -2.9821583612       11.0165389441       26.4794578788
  H        -3.2670234943       11.3928486499       28.0998071060
  C        -4.2899082006        9.6249719610       27.5035757212
  C        -1.5139281207       15.9032133013       31.4798743974
  C        -1.5530320698       13.8038576100       32.5971741129
  H         5.2882690575       13.1872270928       18.2992453296
  H         5.8664411357       14.6996341516       18.8069248903
  C         7.3246131143       13.0501236915       18.8195565010
  H         2.7361175601        6.5402918611       15.7900718139
  C         3.3501907178        7.9033557143       14.6296280815
  H         3.1965840452        9.0448776245       28.8047631555
  H         2.5107877127        9.1434364757       30.4754095351
  C         4.2684761287       10.4480789943       30.1244260981
  H        -4.0653467329        8.8536924819       26.7673508499
  H        -4.3296154768        9.0893367426       28.4862614095
  C        -5.6233753367       10.3369129926       27.3001264512
  N        -1.3479478348       16.8445677279       30.4258250432
  C        -1.8409243800       16.5742438264       32.6600938956
  C        -1.8311942950       14.4171763608       33.8125362874
  H        -1.2892968720       12.7293513458       32.5552706603
  H         7.5749483650       12.7837218612       17.7300137619
  H         8.1682781347       13.6981760985       19.0259853993
  H         7.5179233148       12.1686115902       19.3774098632
  S         3.5430955379        9.5357325035       14.1607506599
  C         3.4698507326        6.8348168579       13.5371355849
  H         4.4233968162       11.3326497932       29.5365003700
  H         3.9440130125       10.7033690418       31.1556709122
  C         5.4565115681        9.5078301703       30.0733627450
  H        -5.6384905138       11.2140707003       27.9794794759
  H        -6.4613003474        9.7161857197       27.6017860626
  C        -5.7883453863       10.8402665375       25.8649941477
  S        -1.3170241109       18.3437017862       31.1195291799
  N        -1.8764108380       17.9607796313       32.5166160265
  C        -2.0322870208       15.8520816159       33.8796326310
  H        -1.7896534261       13.7850631436       34.6889533851
  C         3.8545535251        8.8379605131       12.5500462853
  N         3.9411907022        7.4859682080       12.4737286645
  O         3.2743691733        5.6105672705       13.7274723125
  H         6.3326420781       10.1069621374       30.2534062399
  H         5.4518872219        9.2435244283       29.0513162340
  C         5.3983835615        8.2826446103       31.0076832982
  H        -5.1881151815       11.7241830967       25.8474086961
  H        -5.3319207063       10.2042489871       25.0996448218
  C        -7.2679500773       11.1022328546       25.5310748902
  C        -2.3135606221       16.5720635097       35.1073891840
  S         4.4712285765        9.7784077203       11.1687642415
  C         4.2250241495        6.7710526416       11.2330244366
  H         5.5524215414        8.5845981320       32.0167927104
  H         4.4987683960        7.7638703180       31.0278665344
  C         6.3871309545        7.1807838390       30.6440713686
  H        -7.4249909649       11.9935779795       24.9246188648
  H        -7.7890078939       11.2857017871       26.4174466217
  C        -8.0027749142        9.9416636782       24.9277677662
  H        -2.1743060863       17.6539117445       35.1292417687
  C        -2.7483299736       16.2203218787       36.3792112048
  H         4.9556762016        7.2867304377       10.6217422662
  H         4.5840142326        5.7859544430       11.4290489481
  C         2.9181947501        6.5966739122       10.4858021080
  H         7.4566098784        7.5186940234       30.8237832476
  H         6.2136198309        7.0480371662       29.5591487778
  C         6.0542376971        5.8427000632       31.3047912920
  H        -7.7126293295        9.9897710976       23.8256419655
  H        -7.5902661836        9.0002221484       25.3124010558
  C        -9.5093587908       10.0458117507       25.1264857758
  S        -3.2233402174       14.6346982207       36.9938937912
  C        -3.0425148257       17.3101669735       37.3184422975
  H         2.8663421494        5.5155861037       10.5619663245
  H         2.1030854882        7.0542612195       10.9722875488
  H         2.9601674734        6.8041452193        9.4052691943
  H         6.5953663460        5.8454507093       32.3027569048
  H         6.4810800036        5.0539744337       30.7384322416
  H         5.0397725580        5.7816954564       31.4255097703
  H        -9.8999956044       10.9270814514       24.7065210790
  H        -9.8564525617        9.9553306497       26.1641797657
  H       -10.0994374603        9.2766146632       24.6874371523
  C        -3.6192535883       15.5243620691       38.4499054932
  N        -3.5151331297       16.8535227911       38.4621457633
  O        -2.8164877191       18.5245031104       37.1147511289
  S        -4.2234319488       14.8326639426       39.9577403196
  C        -3.7423215621       17.7157786586       39.6080256731
  H        -3.9195147827       18.7818757632       39.3160201490
  H        -4.6624721795       17.3923859715       40.1480360724
  C        -2.4574532695       17.6485796915       40.4453846325
  H        -1.6314908504       17.6678559585       39.7971509845
  H        -2.4173769555       18.4017121002       41.2784928808
  H        -2.4626919039       16.7653974604       40.9867260235
