352
i=
  H         4.4604685451        1.3935156930       12.7561665779
  C         3.7057515655        2.1619105770       12.9711999240
  H         4.2588027070        3.0443903124       13.1678654551
  C         2.9783487198        2.4232694847       11.6544328716
  C         2.8544406096        1.6364242257       14.1421852775
  C         3.8137400585        2.5191367554       10.3791803782
  H         2.3428560836        3.3339310174       11.8844601831
  H         2.2235005498        1.6016414932       11.5184728038
  H         2.2002640526        0.8690755572       13.7822083388
  H         2.4315982833        2.5127275634       14.6176797241
  H         3.5234362189        1.1183608401       14.8300000756
  C         4.6652328404        1.3012654961       10.0269666856
  H         3.0887154736        2.7217740652        9.5908762236
  H         4.4936660298        3.3458455112       10.4946196343
  C         5.2050740624        1.1905423669        8.5889331571
  H         4.0891882197        0.3706261109       10.1319152200
  H         5.5178953612        1.3700373293       10.7157625729
  C         6.4089298525        1.9923029944        8.4234212614
  H         4.3840294287        1.6541747261        8.0297792129
  H         5.1712973155        0.1297759363        8.1877109405
  C         7.6443041450        1.4721909989        9.1040858244
  H         6.7127409960        2.0883396429        7.3769574799
  H         6.1448735855        2.9802260627        8.7277436659
  C         8.8240723919        2.4152730138        9.3074606317
  H         8.0244749487        0.6439423025        8.5336005094
  H         7.4339519180        0.9682935466       10.0349327891
  C         8.4396315656        3.7529368099        9.9625703876
  C         9.2322478326        3.1050412275        8.0198770544
  C         9.9791717859        1.6818560711       10.0405200086
  C         8.5788928458        4.8506000967        9.1169935084
  C         8.0317622637        4.1275815611       11.2585775412
  C         9.0722378123        4.4838968432        7.8630288965
  C         9.8218203754        2.5722183962        6.8199031567
  H         9.5109894911        0.9252989140       10.7343769159
  H        10.5077929862        1.1180982461        9.2955237670
  C        10.9096948051        2.6945884088       10.7931496286
  S         8.2437475872        6.3322249966        9.9868827778
  C         7.7687360420        5.4856918943       11.4107268764
  H         7.7807927967        3.4193734273       12.0201794655
  C         9.5261044212        5.1322051149        6.7514359969
  H        10.0239297566        1.5015350622        6.7660946190
  C        10.1232211750        3.1764421142        5.6687423241
  H        10.4810174262        3.2926746030       11.5675046833
  H        11.2829231731        3.4096485895       10.0077455978
  C        12.2033219041        2.0053639071       11.3804173305
  C         7.3819407044        6.1635489902       12.6882069699
  C        10.0629585416        4.4924993611        5.5748584172
  H         9.3830835604        6.1779921102        6.7986790429
  C        10.5455610412        2.7421083377        4.4135982880
  H        13.0144124811        2.7089807659       11.5215854125
  H        12.4850494224        1.2507939166       10.6312632686
  C        11.7582205748        1.3630588246       12.7469118537
  C         7.5495515837        7.5245357199       13.0138165861
  C         6.9585879451        5.3249573326       13.8354324955
  C        10.3736595675        5.1177344996        4.2550080107
  C        10.6637127286        3.8070369393        3.5831899507
  S        10.9088317952        1.1761221672        3.7650724183
  H        10.8190025455        0.8906213304       12.6007853285
  H        12.5287412304        0.6386535811       12.9289244089
  C        11.6963780829        2.2969941151       13.9556855507
  N         7.9121306177        8.4838340750       12.0487229761
  C         7.3790520056        8.1029148546       14.2755661082
  C         6.7630983786        5.9091481780       15.1507901183
  H         6.8305455110        4.2783935875       13.7376013829
  C        11.6027724657        6.0407932858        4.3235466091
  C         9.1585355289        5.8693545218        3.7292231573
  C        11.1199637431        3.3967038311        2.3433788526
  C        11.2879348883        2.0384128379        2.3027367171
  H        10.7626883201        2.8757427758       13.8257378654
  H        12.4514995568        3.0198694662       13.8165549626
  C        11.7485819787        1.6326241321       15.3134124741
  S         7.9021851085        9.9646499615       12.8109018225
  N         7.6289251394        9.4568494806       14.3457493748
  C         6.9932351574        7.3951130926       15.4319099157
  H         6.2588377036        5.1898017828       15.8060935921
  H        11.4317828753        6.8622895742        5.0414097406
  H        11.7116020685        6.4551290555        3.3181239947
  C        12.8854512498        5.2589029221        4.6965510036
  H         8.7485622219        6.4532759187        4.4827952943
  H         9.5537041896        6.5383178312        2.9476853856
  C         8.0324404145        4.9751091804        3.1341491380
  H        11.2120333681        4.0828171259        1.5651626150
  C        11.5987826423        1.3184917158        1.0330668782
  H        10.7838165105        1.8852015767       15.7641475846
  H        11.7892737604        0.5210640632       15.2243857074
  C        12.9183524707        1.9468309314       16.3077676115
  C         6.8857227007        8.0874287576       16.6507901409
  H        12.6251634937        4.5067847767        5.4463180098
  H        13.2306396543        4.5765188401        3.8617997307
  C        14.0878564788        6.1295365566        5.1807393538
  H         7.8177879852        4.0574730261        3.6070124508
  H         8.3627549268        4.7146739404        2.1112891578
  C         6.7205443729        5.6229406194        3.0512512477
  C        11.7013872465       -0.0798704380        0.8150494870
  C        11.9090101329        2.2179213065       -0.1132779543
  H        12.9933083555        3.1029362766       16.2912505129
  H        13.9031799327        1.6545091003       15.8820170992
  C        12.7726275905        1.3983953503       17.7336050776
  H         6.9377714208        9.1844991283       16.5777936566
  C         6.6225667186        7.6458399766       17.9574878690
  H        13.8296342381        7.0556322021        5.7141710414
  H        14.6863444706        6.5107201746        4.4030646506
  C        15.0808998018        5.3930340715        6.0723754080
  H         5.9557634904        5.2512648449        3.7756636437
  H         6.8885940704        6.6907195590        3.2443514550
  C         6.2475688697        5.5775108873        1.5929521989
  N        11.3960065617       -1.0081052110        1.7877504238
  C        12.0499334375       -0.6698716113       -0.3722012610
  C        12.2147041308        1.6207071924       -1.3123659337
  H        11.7363153059        3.2712998112       -0.1324627742
  H        11.7151223799        1.4482418334       18.0313389801
  H        13.3470678446        2.0042489117       18.3081601161
  H        13.1322864156        0.4283481560       17.8347118793
  S         6.3752848580        6.0385708997       18.4618042376
  C         6.5880419340        8.6306494456       19.0346950018
  H        14.6832671733        5.4146995785        7.0265031620
  H        14.9343068421        4.3120640148        5.9036509880
  C        16.5448780336        5.7325724475        5.8767270070
  H         6.3661343255        4.5868021432        1.2342535207
  H         7.0119842451        6.1419057995        1.0259642881
  C         4.8254475760        5.9303723251        1.4137845724
  S        11.5783305299       -2.4792611721        1.1901642963
  N        11.9411095262       -2.0480700508       -0.3610969479
  C        12.3004062138        0.1408989423       -1.4694430976
  H        12.3828587251        2.2806401805       -2.1118302190
  C         6.1207538839        6.6329212086       20.0498600721
  N         6.2169344783        7.9882726906       20.1827654323
  O         6.5951748420        9.8649963591       18.8208244961
  H        16.7767269272        5.4721442937        4.8365130379
  H        16.7763456611        6.7688154869        5.9106328718
  C        17.3497982835        4.8455830934        6.8016112944
  H         4.5472376449        5.5802934851        0.3335811536
  H         4.2274580721        5.2820396012        2.0532626519
  C         4.4217482857        7.3702016466        1.5051991342
  C        12.6817724380       -0.5251314119       -2.6867983897
  S         5.8237641408        5.7024896473       21.4800098618
  C         6.2247138652        8.7496621909       21.4576116688
  H        16.7603977018        4.3502075604        7.6259476113
  H        17.4982560183        3.9484844952        6.1986872656
  C        18.6056127498        5.5065526429        7.3766515440
  H         4.6858339595        7.8325911120        2.4959979134
  H         3.3324093048        7.3816130612        1.6957010439
  C         4.5860653436        8.2502710467        0.2300567822
  H        12.4498476558       -1.5570781885       -2.7461999160
  C        13.3097551771       -0.1669563099       -3.9120044061
  H         5.6779209204        8.3187978164       22.2681102409
  H         5.5891399858        9.6191928289       21.3465785043
  C         7.6316158580        9.2297333271       21.8290893753
  H        18.9473384871        4.9735930922        8.2186498041
  H        18.3999714960        6.4918299119        7.7909150531
  C        19.7144872244        5.5536064006        6.4110721631
  H         5.5228661227        8.7849386073        0.3175790215
  H         4.5754750189        7.7169436295       -0.7386432070
  C         3.6582191414        9.4898574894        0.2980867789
  S        13.9243177417        1.4650686858       -4.3400889892
  C        13.3746399326       -1.2117199840       -4.8811310829
  H         7.7575641867        8.9801013861       22.8824736003
  H         7.7565813026       10.3461403474       21.9580364614
  H         8.5387252174        8.7096972335       21.3523283690
  H        19.5648610072        4.8157972946        5.5924310811
  H        19.7969147318        6.5082953573        5.9073274242
  H        20.6870399642        5.3830821868        6.8549766786
  H         4.0110265973       10.1903469178        1.1151529344
  H         3.6099195796        9.9963196180       -0.6474248060
  H         2.6006470934        9.2194094943        0.5389380158
  C        14.5229909977        0.5741053176       -5.8396287824
  N        14.0866003224       -0.7384454184       -5.9239819698
  O        12.9025501075       -2.3518835489       -4.8739369916
  S        15.1081239314        1.4479284143       -7.2114533404
  C        14.2002164526       -1.5194207988       -7.1196341952
  H        14.2895940925       -2.5521680376       -6.8676247651
  H        15.1346711683       -1.2773630661       -7.5558686412
  C        13.0476561189       -1.2623538470       -8.1666259512
  H        12.3513858844       -0.6801097354       -7.6460080914
  H        12.5437295193       -2.1913323825       -8.3770019932
  H        13.4175855310       -0.8043198772       -9.0511155834
  H        -3.8017164826       14.6369938201       16.7576764569
  C        -3.2888084554       13.7380927590       16.5011463798
  H        -3.8185972328       12.9009079708       17.0388833275
  C        -1.9774435222       14.0182977651       17.2212467979
  C        -3.2128730860       13.4043375145       15.0432553411
  C        -1.9867301263       14.3636252420       18.7675481703
  H        -1.4188435194       13.1203236058       17.1161198269
  H        -1.5030969027       14.8057565526       16.6827378256
  H        -2.2196722300       13.0043588704       14.8209368129
  H        -3.8579016461       12.6434062938       14.7416555689
  H        -3.3517107559       14.1821072830       14.3958776354
  C        -2.6039357938       13.3098780785       19.7239558415
  H        -2.4331466549       15.3313620720       18.9963603762
  H        -0.9015173323       14.4390615680       18.9878250710
  C        -2.1898384891       13.5392306177       21.1786897614
  H        -3.6192069703       13.3810010570       19.6289790829
  H        -2.3697638945       12.2716108238       19.4723097158
  C        -0.8221923262       12.8649849102       21.3540850372
  H        -2.8805926475       12.9477850494       21.7361383526
  H        -2.2805035879       14.5967415395       21.4846453506
  C         0.1050793354       13.8442323983       22.0943096679
  H        -0.9839021612       11.8956090806       21.9069340372
  H        -0.3334802337       12.5526046937       20.4526368269
  C         1.2093772838       13.1226610433       22.9833575986
  H         0.5415488058       14.4639603998       21.3402626741
  H        -0.5109961722       14.4411948792       22.7600626081
  C         1.5563096065       11.7543352386       22.3310984706
  C         0.7668607111       12.4372834696       24.2444209530
  C         2.4044873691       14.1302646426       23.2491089392
  C         1.3374485951       10.7071393745       23.2115730756
  C         2.0330339488       11.2951110385       21.0989870008
  C         0.8352414875       11.1176735665       24.4232919635
  C         0.2480955657       13.0940286149       25.3640089513
  H         2.5897334673       14.6774738601       22.3244217102
  H         2.0149252622       14.8812706476       23.9876774328
  C         3.7535811615       13.5572777222       23.8015420418
  S         1.9440990963        9.1948847988       22.6655604525
  C         2.3997876456        9.9906226401       21.1810295234
  H         2.1599142178       11.9132205927       20.2661774320
  C         0.5056025626       10.4810970053       25.5570246376
  H         0.1563843354       14.1298597834       25.3885743336
  C         0.0068496523       12.4886826215       26.5680122203
  H         4.2049189921       12.8396785150       23.0698222943
  H         3.5165062091       12.9210519220       24.6306934960
  C         4.8959962843       14.6019482878       24.1423178019
  C         2.9085001277        9.2138889138       19.9753576679
  C         0.0798027857       11.1389649613       26.7577652814
  H         0.4762589478        9.3892576778       25.6036713409
  C        -0.4091319375       12.9285101260       27.7903754222
  H         5.4972016400       14.1384398209       24.9166964420
  H         4.5278556629       15.4300271347       24.7684725695
  C         5.8101951687       15.1596652045       22.9998449972
  C         2.7673850968        7.8362940721       19.7671139725
  C         3.2309040422       10.0279836673       18.8084924828
  C        -0.2970674855       10.5154729790       28.0794909830
  C        -0.6021871097       11.9060925101       28.7128443922
  S        -0.7256806037       14.4685369955       28.4597064447
  H         6.4922185786       15.8302816347       23.4515279506
  H         5.1720573165       15.6567914623       22.3097187479
  C         6.5057195203       14.0607201148       22.1619096401
  N         2.3329293216        6.8783625702       20.6917101690
  C         2.9610892566        7.2066052451       18.5514288481
  C         3.4186747494        9.4268794802       17.5673364404
  H         3.4813051068       10.9973065411       18.9278515705
  C         0.9041221064        9.7305053279       28.8003258431
  C        -1.7016472491        9.7738988776       27.9236636876
  C        -1.0140144402       12.3181520217       29.9501446869
  C        -1.0519879723       13.6907753564       29.9820857133
  H         7.5180037014       14.2766624966       22.3194123038
  H         6.3417802817       13.1303886175       22.7440665631
  C         5.9495908176       14.0562647447       20.7485668578
  S         2.3933079392        5.3782253545       20.1578975959
  N         2.7572510183        5.7705302676       18.5888824982
  C         3.3782670141        7.9153714617       17.4130516747
  H         3.6094853882       10.0391302082       16.6866874601
  H         1.1845456451        8.9328780737       28.0820599217
  H         0.4616730799        9.2013392497       29.6201369420
  C         2.1298644247       10.6191361544       29.0898984641
  H        -1.4214915073        9.0735354436       27.2504142058
  H        -2.0474860482        9.3004759045       28.8212018806
  C        -2.8576198108       10.5502500045       27.2982716196
  H        -1.0722865691       11.5929282506       30.7728624615
  C        -1.3238760882       14.4726929559       31.2480277561
  H         6.0539452862       15.0354401824       20.2824101111
  H         4.8046518987       13.8156552875       20.7838634560
  C         6.6580390329       13.0318869085       19.8045833403
  C         3.5492837464        7.2355268648       16.1390021456
  H         2.5977008368       11.0864646224       28.2191546506
  H         1.8274584034       11.5124583791       29.5837285564
  C         3.1084988022        9.7072729796       29.7680164086
  H        -2.6453899317       10.9524301474       26.2653426041
  H        -3.0133908726       11.5077151389       27.9173615854
  C        -4.1505474178        9.8193882196       27.2858236396
  C        -1.2061836528       15.8486823751       31.4075453482
  C        -1.6066748821       13.7585985938       32.5377829262
  H         7.7369457376       12.8935493193       19.9800131377
  H         6.1760307979       12.0391919896       19.8664986179
  C         6.5939350090       13.4211307932       18.3271509478
  H         3.6997674121        6.2131884759       16.2324908990
  C         3.8621648571        7.7198958658       14.9200123930
  H         3.4736091801        8.8766751478       29.1695562915
  H         2.5518288871        9.2177608627       30.5442786786
  C         4.2282622716       10.4903890439       30.3239601628
  H        -3.9906631651        8.9011286381       26.7302924604
  H        -4.3368967791        9.5180395571       28.3292038053
  C        -5.2019022946       10.7412600745       26.6405700326
  N        -0.8459793016       16.8081422499       30.4258443349
  C        -1.5386344613       16.4575548288       32.6552677119
  C        -1.8043227847       14.3364570045       33.7305428087
  H        -1.6292353161       12.6685482196       32.4248244429
  H         5.5975658909       13.8972687198       18.0548254710
  H         7.2807886145       14.2049276514       18.1022494966
  H         6.8049333457       12.5924818162       17.6482795485
  S         4.2573315083        9.2884563459       14.2749106887
  C         3.8354898250        6.6384069659       13.8780318919
  H         4.1896859851       11.5128295315       29.9691257090
  H         4.1336588905       10.4981099605       31.4587581654
  C         5.6028794239        9.9347106343       30.0353190169
  H        -4.7687824582       11.4442743078       25.9289165802
  H        -5.5617682771       11.2755618511       27.4856082596
  C        -6.4069693134        9.9536384467       25.9881999019
  S        -1.0554930424       18.3096440241       30.9706444248
  N        -1.3698814758       17.8309303799       32.5354732375
  C        -1.8895267866       15.8121868527       33.8187211870
  H        -2.0334708409       13.6714147435       34.5738520017
  C         4.3859110411        8.4923586955       12.7084714387
  N         4.1010383261        7.1748874020       12.6471077535
  O         3.4986131080        5.4356180150       14.0373218855
  H         6.2691719765       10.7373821081       30.3961363432
  H         5.9192160793        9.6583982554       29.0407465019
  C         5.7436464678        8.6374945709       30.9173409349
  H        -6.0693644033        9.2198739171       25.2427517209
  H        -6.8712051402        9.4291222978       26.7680790376
  C        -7.4322645608       10.8115671948       25.2376506149
  C        -2.2764482571       16.5635067432       34.9779281448
  S         4.7458304412        9.2689471381       11.2276607970
  C         3.9607612845        6.3660979692       11.4135745011
  H         6.4256347200        9.0386046703       31.7326624959
  H         4.8641016791        8.2898509586       31.3738398150
  C         6.4998258902        7.4602199268       30.2279621597
  H        -6.9142930829       11.2727254777       24.4027923956
  H        -7.7087426384       11.6447186888       25.7729868604
  C        -8.6140820381        9.8881677317       24.8718481974
  H        -2.3459678920       17.6521021841       34.8931607035
  C        -2.6363268245       16.0992319766       36.2671021283
  H         4.6336603609        6.6703549295       10.6021530819
  H         4.3472817275        5.3380697512       11.5783550638
  C         2.5167358164        6.4444322907       10.7798119756
  H         7.3749116045        7.7786400216       29.6348962808
  H         5.8781569839        6.8960115034       29.5315522946
  C         6.9640695893        6.5069552580       31.3149896000
  H        -9.0402925969       10.2168570330       23.9015892929
  H        -8.2901337530        8.9242004462       24.6759728309
  C        -9.6835077411        9.8884467718       26.0455808258
  S        -2.7370827300       14.4338422234       36.7968584677
  C        -2.9512828280       17.1056260123       37.3281891515
  H         2.5239365413        5.9695126951        9.8054272783
  H         1.7855973383        5.9336172581       11.4449561269
  H         2.2475770721        7.4679229078       10.6214972297
  H         6.1860253670        6.3794684033       32.0258276600
  H         7.7810497238        6.7918224416       31.9610224254
  H         7.0627294711        5.4512243539       30.9586307085
  H       -10.1402100197       10.8719089598       26.1592360406
  H        -9.2435819768        9.5476374497       26.9784216863
  H       -10.5030804776        9.2455644443       25.8762507859
  C        -3.1858544735       15.0491560353       38.3526856423
  N        -3.3538118097       16.4203775383       38.3863260208
  O        -3.0014788380       18.3410335425       37.1583878243
  S        -3.8427409822       13.9575769563       39.6354626312
  C        -3.7807667482       17.1457251170       39.5827638480
  H        -4.2833383392       18.0658356513       39.2958434015
  H        -4.4448713486       16.6287105772       40.1555139890
  C        -2.5049905429       17.4603811764       40.4311172424
  H        -2.7565534298       17.8954944784       41.4033134131
  H        -1.9354520192       16.5734394882       40.6984000170
  H        -1.8440373190       18.0994540995       39.8850051210
