352
i=
  H         4.2959840976        1.7564265869       12.4334431970
  C         3.3858518662        2.2847409393       12.5176654426
  H         3.6231266645        3.3230557838       12.5161517226
  C         2.6436064328        2.0225105540       11.2865699362
  C         2.5510851811        1.8907446287       13.7048070854
  C         3.6338955831        2.4053390237       10.1303008159
  H         1.8264419309        2.8147471306       11.2145576607
  H         2.2570898444        1.0138173954       11.1836703028
  H         1.5575855946        1.5767696942       13.3144552683
  H         2.3325052990        2.7318863132       14.4103647172
  H         2.9814027258        1.1542326203       14.2848814386
  C         4.4972865912        1.3077997797        9.5197983116
  H         3.0860459172        2.7927397771        9.2554449244
  H         4.2587840865        3.2783857443       10.4031350775
  C         5.3394564055        1.8398780056        8.2664291177
  H         3.8375433446        0.4234065157        9.2638967414
  H         5.2073614355        0.9054246809       10.1978597343
  C         6.5400989325        2.6233897205        8.6897252837
  H         4.7842507754        2.6056668054        7.7522699504
  H         5.4662052130        1.0552810310        7.4880861601
  C         7.7917988625        1.8153915492        9.0450681032
  H         6.8477391712        3.3218978160        7.8891445681
  H         6.2294973698        3.2901784088        9.4866935510
  C         9.0506775015        2.6607790214        9.2776834657
  H         8.0604831132        1.2392176492        8.1993530506
  H         7.5004009190        1.1224415093        9.9090642844
  C         8.7204947324        3.9596258868        9.9890041531
  C         9.4598355820        3.4093551347        8.0852131732
  C        10.3077240878        1.9574780761        9.9972605315
  C         8.9393622876        5.1131387055        9.2249811032
  C         8.1872002155        4.2627698159       11.2255433625
  C         9.4698692177        4.7381859261        7.9968712342
  C         9.9384059817        2.7364056583        6.9766937694
  H        10.0128718273        1.5688903742       10.9789602195
  H        10.5818070602        0.9658165974        9.4394679947
  C        11.5020376187        2.7974944131       10.3095659479
  S         8.4756986174        6.5454739092       10.0105192418
  C         7.9906173692        5.6071737547       11.4069528839
  H         8.1099134360        3.4398275889       11.9848153375
  C         9.9482303714        5.3680696114        6.9253334330
  H         9.9172067267        1.6325832936        7.0598812849
  C        10.3614970878        3.3945241704        5.8665172797
  H        11.2245111381        3.8337899801       10.5286491635
  H        12.0885757822        2.8179496867        9.3861887758
  C        12.4551391419        2.3064953783       11.4815984692
  C         7.3991253171        6.2782407485       12.6171166864
  C        10.4371729835        4.7361329236        5.8069712969
  H         9.9099813459        6.4215866592        7.0392248678
  C        10.8112545115        2.9447640643        4.5958527942
  H        13.4571364334        2.7437783183       11.4049328919
  H        12.5383561017        1.2519397257       11.6154595508
  C        12.0352255063        2.7660175607       12.8696922801
  C         7.4315079463        7.6765764072       12.8650153709
  C         7.0143984949        5.4956082597       13.8136141711
  C        10.8200448315        5.3747776869        4.5084638826
  C        11.0133558946        4.0373480740        3.8211455307
  S        11.0241946196        1.4343096490        3.8217429282
  H        12.5483848357        3.6292531641       12.9626331824
  H        11.0109563593        3.0872198606       12.8541145480
  C        12.4610929460        1.8101457838       13.9534902161
  N         7.8024173270        8.6282903242       11.9864731944
  C         7.1193524490        8.2143384455       14.1069278802
  C         6.6170661130        6.0517571340       15.0165206432
  H         6.9429787566        4.4115431887       13.6533192723
  C        12.1082995778        6.1547128883        4.7107117791
  C         9.5552417076        6.0637791067        3.8698498587
  C        11.2329219657        3.6989451732        2.4756713664
  C        11.3369083001        2.3173167381        2.3363376553
  H        13.4561399240        1.4828965600       13.9446785938
  H        12.0292414476        0.8557833936       13.7615774236
  C        11.9961497844        2.2978895836       15.3288451492
  S         7.6567156357       10.0992023307       12.6750917225
  N         7.2606832615        9.5644688936       14.1637183436
  C         6.7810390876        7.4339760940       15.2417284524
  H         6.3266917689        5.3820314382       15.7562256852
  H        12.0263687022        7.0249366913        5.4226639327
  H        12.3636251934        6.5067943548        3.7707479043
  C        13.2966888699        5.3523061770        5.3120139727
  H         9.3407054655        6.9783424325        4.3748986017
  H         9.9523512884        6.3794265978        2.8588072163
  C         8.3215168029        5.1014350098        3.6952129549
  H        11.3734192184        4.4780289603        1.7051415730
  C        11.7084058984        1.5683038401        1.1305239510
  H        11.9385671414        3.3904433238       15.2914180918
  H        10.9809139348        1.8926856187       15.4598281737
  C        12.8051595972        1.7930881474       16.4672054394
  C         6.4999644438        8.1471182994       16.4952516885
  H        13.0359896932        4.9175836066        6.2866019236
  H        13.5989475117        4.5722439678        4.6708198925
  C        14.4794304559        6.3101851767        5.6553210965
  H         7.9658149985        4.6322413303        4.6103890668
  H         8.6628803951        4.3592504840        2.9317476768
  C         7.2145071480        5.9397188948        3.2141569099
  C        11.6897900087        0.1873958509        0.9366565194
  C        12.1285885875        2.3638343001       -0.0298347633
  H        13.8745894792        2.1927281624       16.4776198747
  H        12.8965798067        0.7502401704       16.3152032136
  C        12.1856391734        2.0555582682       17.8351040469
  H         6.6335631015        9.2253989762       16.3764539419
  C         6.0755951226        7.7845969571       17.7334292612
  H        14.1930729662        7.0238083228        6.4429944811
  H        14.6304309021        7.0238517514        4.8532782624
  C        15.8521712707        5.7129597700        5.8184950436
  H         6.8519191834        6.4532424506        4.1584877218
  H         7.5641900144        6.6242042503        2.4632562835
  C         6.0570843824        5.1768231088        2.4985093927
  N        11.3889125162       -0.7563091850        1.8900453817
  C        11.9900474291       -0.3906354642       -0.2835550090
  C        12.3957496074        1.7458763292       -1.3113415231
  H        12.1701439586        3.4408639006        0.0635894639
  H        12.0065194365        3.0894459721       17.8466293091
  H        12.8364972373        1.8814188320       18.6805828001
  H        11.2233472164        1.6010621712       17.9963670923
  S         5.7614361619        6.1683679961       18.2695199321
  C         5.8857726812        8.8540432727       18.7555527011
  H        15.7336581370        4.7312262506        5.3130988911
  H        16.4233465573        6.2361443890        5.1926399113
  C        16.3066647654        5.7418113508        7.2843182823
  H         5.6236951048        4.3934818679        3.1164473670
  H         6.5434684314        4.6262768821        1.6554214563
  C         5.0942935296        6.2061129307        1.8831400677
  S        11.5178674756       -2.2819955738        1.3121025285
  N        11.9809800548       -1.7739374678       -0.1868208023
  C        12.2853023266        0.2797792150       -1.5036955706
  H        12.5140474307        2.4554985090       -2.1462328665
  C         5.4275681631        6.8756741715       19.8363260584
  N         5.5727973606        8.2539950026       19.8955819309
  O         6.1740805264       10.0268865239       18.6104643659
  H        16.4620934174        6.8004411507        7.6807661457
  H        15.4974988224        5.3231283936        7.8346423310
  C        17.6117888918        5.0589646872        7.5039956712
  H         5.7163489146        7.0173349908        1.3681242827
  H         4.3900157433        5.6838085118        1.1796373061
  C         4.2700272442        6.9184560942        2.9337736875
  C        12.5023099245       -0.5031590585       -2.6972789462
  S         5.0127161265        5.9542357094       21.2337782036
  C         5.6306644357        8.9437681779       21.1574192120
  H        17.6598744324        4.7107586265        8.5394075221
  H        17.7319116891        4.1651982163        6.8567513695
  C        18.8074504470        6.0018869162        7.3599253590
  H         4.8846400727        6.9357968435        3.8295780365
  H         3.3530074321        6.4368569699        3.2332649871
  C         3.9031931850        8.4127088020        2.5912372753
  H        12.6009676237       -1.5121438867       -2.4899126331
  C        12.8742013448       -0.1266828588       -3.9628285366
  H         4.8114381409        8.6440865919       21.8707127073
  H         5.3007321622        9.9575303735       20.9081439311
  C         7.0347785561        8.9209719817       21.8812885951
  H        19.4749170759        5.7575267807        8.1613829490
  H        18.5321730059        7.0325813333        7.5522740142
  C        19.4989811547        5.7971489812        6.0296194820
  H         3.3065911589        8.7645065721        3.4217024721
  H         4.7905342318        9.0480859781        2.5872174353
  C         3.2010583087        8.6619943480        1.2362152952
  S        13.4345785009        1.4474158973       -4.5492696848
  C        12.9758168727       -1.2199079620       -4.9218351489
  H         7.2895655490        7.9907439785       22.4180579326
  H         7.3698149775        9.6569382640       22.6318230379
  H         7.7630942619        9.1055549520       21.1169791447
  H        18.8835142504        5.6359002140        5.2151377099
  H        20.0054360380        6.7551468529        5.8047583467
  H        20.2304718185        4.9379425677        6.0428779418
  H         3.3137798130        9.6842983980        0.8731184465
  H         3.4575546186        7.9745828809        0.4237064229
  H         2.1397925623        8.4627244502        1.3885351517
  C        13.8126759164        0.6631773438       -6.0751482235
  N        13.5630998334       -0.7313379555       -6.0498070912
  O        12.6559603711       -2.3784903958       -4.7175824442
  S        14.5077460038        1.3880907895       -7.6042082825
  C        13.8278095169       -1.5470540795       -7.2059025635
  H        14.1438546199       -2.5535166151       -6.9366880050
  H        14.5800994540       -1.1485619851       -7.8587017382
  C        12.4221386703       -1.5690291848       -7.9104620129
  H        11.9318241530       -0.5614455476       -8.1201267763
  H        11.7041869982       -2.1251482679       -7.2965898519
  H        12.4296261376       -2.0975352073       -8.8782176950
  H        -3.5978856776       14.3008461420       16.3188784684
  C        -3.2938717793       13.2566979424       16.2162423765
  H        -4.2248219606       12.6337294514       16.2726322592
  C        -2.4795808939       13.0263473347       17.4221617839
  C        -2.6005966885       12.9824339492       14.8810926864
  C        -3.1715266680       13.3749165826       18.6799896437
  H        -2.3186041403       11.9400512392       17.4544386863
  H        -1.4818506722       13.5073142139       17.3234494269
  H        -3.2944706628       13.2629271529       14.0718208622
  H        -1.6937783738       13.5535493841       14.7804228814
  H        -2.2634584325       11.9615557685       14.7931042739
  C        -2.4544446763       12.6483508021       19.8859359968
  H        -4.2242801658       13.1243791241       18.5701968644
  H        -3.1658458343       14.4422649453       18.8026334084
  C        -2.7607074042       13.2287091072       21.2591355788
  H        -2.8343258222       11.5820623057       19.9239556863
  H        -1.4237093811       12.4410779530       19.6429661845
  C        -1.8632290874       12.6187369861       22.2628820862
  H        -3.7566711281       13.1039779371       21.5858322709
  H        -2.4840835750       14.3556799036       21.2301734320
  C        -0.5452699820       13.3898128601       22.4982347550
  H        -2.3401005794       12.1350946401       23.1500468766
  H        -1.4130127371       11.6967912877       21.8134179767
  C         0.6057476803       12.7521932722       23.3492239601
  H        -0.1106595918       13.7831928476       21.6069103046
  H        -0.8168337966       14.2195590462       23.0922781827
  C         0.9313379524       11.4984063219       22.5984023415
  C         0.1223026320       12.0382674015       24.5721531928
  C         1.8645105810       13.6805919123       23.4688416998
  C         0.7124496898       10.4242641379       23.4053729614
  C         1.5036877269       11.1278976118       21.3352999615
  C         0.2373438815       10.6958661379       24.6883231169
  C        -0.2735927425       12.6210848755       25.7824730758
  H         2.0265207578       14.1260007188       22.4631141642
  H         1.6185804910       14.5861068596       24.0481089571
  C         3.1228248639       12.9692980957       23.9638578856
  S         1.0696207437        8.9067586095       22.6749490061
  C         1.6498134643        9.7500361267       21.2926850708
  H         1.7637377062       11.8288596866       20.5682584134
  C        -0.1204302756        9.9834507316       25.7888729666
  H        -0.2750676652       13.7617479529       25.8419283553
  C        -0.5448684050       11.8912781180       26.9426518036
  H         3.4717388399       12.3144103364       23.1697450471
  H         3.0393378206       12.4563053586       24.8834132303
  C         4.1858242304       14.0379947815       24.2450445889
  C         2.1339091805        8.9900212725       20.0384900926
  C        -0.4528031755       10.5897670296       26.9491439088
  H        -0.1437360503        8.8806672874       25.7229311621
  C        -0.9398204348       12.2260200724       28.2256083218
  H         4.9690487503       13.7009297123       24.8670255961
  H         3.7424268879       14.7898075939       24.8647937625
  C         4.9773699343       14.6567219775       23.0214167329
  C         2.1393789512        7.5916897703       19.8105983493
  C         2.4963701311        9.8036894088       18.8865565569
  C        -0.7619478049        9.8391337357       28.2323914336
  C        -1.0331245261       11.1567315354       29.0433016858
  S        -1.3058469744       13.7392834364       28.9121664863
  H         5.6517974498       15.4501335775       23.2884570478
  H         4.1858705570       15.0229746761       22.3507107281
  C         5.8323262821       13.4977351803       22.4295851461
  N         1.9888533807        6.6919751691       20.8298682788
  C         2.4829115109        7.0440720182       18.5862677391
  C         2.9180044133        9.2624089902       17.7035364179
  H         2.6138529001       10.8802331253       18.9943539744
  C         0.4831039646        9.0829680161       28.7401511894
  C        -2.0041661398        9.0263576952       28.0626766404
  C        -1.4321214771       11.5398793674       30.2983587194
  C        -1.6721431659       12.8727990281       30.3989977630
  H         6.8322028767       13.9569182698       22.3401192912
  H         6.0081188187       12.6932235335       23.0824706023
  C         5.1769334375       13.0888309452       21.1436212175
  S         1.8363374959        5.2420517698       20.1095829183
  N         2.2117711851        5.7018728541       18.5796203440
  C         2.9759563391        7.8003273851       17.5037814709
  H         3.1818971141        9.9554955632       16.8923075255
  H         0.9800065901        8.4890119286       28.0529571150
  H         0.1043332785        8.2591653171       29.2466379189
  C         1.5722974346        9.8725835884       29.5798082351
  H        -1.8213828608        8.1816077101       27.3411545175
  H        -2.3784486448        8.5288301494       29.0215841284
  C        -3.1934450899        9.7763814281       27.4520069025
  H        -1.5193786527       10.7293682764       31.0088275505
  C        -2.1233458637       13.5911578340       31.5985442706
  H         4.2913676248       13.6594605939       20.9070424861
  H         4.8291651793       12.0463233583       21.3276439538
  C         6.0160311910       13.0249454299       19.9336578122
  C         3.2989369939        7.1306571225       16.2376083971
  H         2.1225144753       10.5083198340       28.8579496493
  H         1.0988656226       10.4835051373       30.3656481669
  C         2.4938857465        8.8531019585       30.1223584285
  H        -2.9957448010       10.2416695826       26.5470297465
  H        -3.4881828790       10.6176572862       28.1073933071
  C        -4.5329503878        9.0210779791       27.3391705852
  C        -2.1492279298       14.9900429424       31.7574424972
  C        -2.4054002732       12.8145274300       32.8149928437
  H         5.4018835079       12.5066345527       19.2366731756
  H         6.2919007291       14.0301522310       19.6420420274
  C         7.3042084729       12.3224980337       20.2776145422
  H         3.1644817271        6.0345604151       16.2650336614
  C         3.4058848718        7.6398291612       14.9147138082
  H         2.7670800418        8.2409814560       29.2871764100
  H         1.9176572079        8.2439192545       30.8234703709
  C         3.7091230055        9.5246773922       30.8159998131
  H        -4.4860002112        8.2081193732       26.6434544538
  H        -4.9418068542        8.6648887504       28.3367726354
  C        -5.5089082258        9.9530021358       26.7505078253
  N        -1.8657685208       15.8961039352       30.7053710157
  C        -2.5238070572       15.6530605075       32.9344618084
  C        -2.6177483557       13.4772513738       34.0617116196
  H        -2.3377940483       11.7081214542       32.7247909189
  H         7.0521783792       11.4749653442       20.9051780298
  H         7.8114695483       11.9804715394       19.4158156162
  H         7.9835614672       12.9499141135       20.8835275639
  S         3.5787339026        9.2746613458       14.3984243479
  C         3.4471455640        6.6818711792       13.8446978835
  H         3.7232769890       10.5147519166       30.3902593806
  H         3.5717519819        9.6655034459       31.9293188014
  C         5.0586737625        8.7851164698       30.5661984442
  H        -5.0576391793       10.3998532591       25.8708052960
  H        -5.7847650193       10.7781485507       27.4602671804
  C        -6.7625350437        9.2898223943       26.2123092301
  S        -1.9783729874       17.4266193284       31.2244977081
  N        -2.5589189966       17.0556199941       32.7360848748
  C        -2.7307527999       14.9621934417       34.1254034380
  H        -2.7599310933       12.9342144045       34.9551048362
  C         3.8629388778        8.5636455398       12.7614406632
  N         3.8727281795        7.2208635176       12.7481883605
  O         3.3418004382        5.4509868405       14.0050199921
  H         5.8456971041        9.4620303386       30.8105703390
  H         5.3654082841        8.5658970494       29.4582051299
  C         5.0638731179        7.5526775869       31.3768449461
  H        -6.4766845770        8.5551024248       25.5084768274
  H        -7.0828358113        8.7821395775       27.0790044886
  C        -7.7162908497       10.2770271032       25.6829986668
  C        -2.9864728274       15.7186405236       35.2912166630
  S         4.4506253561        9.3977382349       11.3840637458
  C         4.0639207225        6.4297373070       11.5378001866
  H         5.6428386951        7.7391711381       32.3237944267
  H         4.0452551080        7.1998997070       31.7395141292
  C         5.6975641432        6.3210776322       30.7699568465
  H        -7.3904889691       10.4755677680       24.5858508861
  H        -7.6435153607       11.2111319197       26.2753225845
  C        -9.1180660313        9.6478639632       25.5676482709
  H        -2.5411412990       16.6780292515       35.2254383142
  C        -3.5081136186       15.3472745948       36.4803763592
  H         4.8372333220        6.8280498751       10.8209456017
  H         4.5264853029        5.4906679044       11.8307141977
  C         2.7299535798        6.0922271310       10.8951606621
  H         4.9733388882        5.7199415335       30.2565988541
  H         6.0204834994        5.6786812426       31.6352936944
  C         6.9430892423        6.5971123328       29.8320726303
  H        -9.6446275880       10.0385900346       24.6935309797
  H        -9.1540054326        8.6233006259       25.3220316660
  C       -10.0133409626        9.9449571167       26.7859554196
  S        -4.2364917671       13.9167947294       36.9269158461
  C        -3.4209424329       16.4040994835       37.5200581826
  H         2.8971784241        5.4803626526       10.0498664516
  H         2.1771647916        5.4041146279       11.5883923873
  H         2.0753416684        6.8943229748       10.5520180085
  H         6.6759256900        6.8760277685       28.7753256257
  H         7.4388309226        5.6664188145       29.5221906666
  H         7.7072484318        7.2091620012       30.2500157768
  H       -10.8541838006       10.4727819844       26.3527312519
  H        -9.4504248614       10.5465622559       27.5669180921
  H       -10.3768542782        9.0290670280       27.1703139572
  C        -4.5398878984       14.7094585739       38.4685132108
  N        -4.0256790725       15.9392146608       38.6243768575
  O        -2.9357714687       17.4968874486       37.3610316966
  S        -5.5968860600       14.0980097316       39.7238437817
  C        -4.3023415705       16.8098663625       39.7606152466
  H        -4.2641186201       17.8457341076       39.4752882973
  H        -5.3206618091       16.7519093141       40.1801887263
  C        -3.3344328782       16.4694405335       40.8683906340
  H        -3.9132827609       15.7858202882       41.5253516330
  H        -2.5264724143       15.8244969374       40.5878877972
  H        -3.0398938040       17.3777742135       41.3941215864
