352
i=
  H         3.9458488548        1.9347194127       12.8041381258
  C         3.4493919284        2.9204195661       12.7140453686
  H         4.2433651706        3.6731200743       12.7372157825
  C         2.6065437300        2.9155520773       11.4202903542
  C         2.5902952488        3.0391116239       14.0103290751
  C         3.5348359500        2.9952915497       10.2375585166
  H         1.9926979425        3.8627857383       11.3667142659
  H         1.9272624858        2.0531134531       11.3335817912
  H         2.0237056109        2.1185116996       14.2085257842
  H         1.8329427906        3.8711914833       13.9835985010
  H         3.1886732872        3.1557961251       14.8635586455
  C         4.4349211931        1.7351229495        9.8507536996
  H         2.8571174945        2.9648350147        9.3679260436
  H         4.2064523223        3.8737202139       10.1534374890
  C         5.3699107271        2.0560651649        8.6836845520
  H         3.8382977934        0.8187665715        9.6321534435
  H         5.0160452873        1.5647289095       10.7394691309
  C         6.6127397007        2.8532711108        8.9118268218
  H         4.7704400064        2.5745771019        7.9773347124
  H         5.5818560316        1.1327971213        8.2418349034
  C         7.9079443144        2.1061182437        8.9219856888
  H         6.7643279814        3.6289953842        8.1703874630
  H         6.3904799795        3.3047856873        9.8869516047
  C         9.1018386295        3.0477650199        9.2223314568
  H         7.9878640069        1.6857055603        7.9087253952
  H         7.8027142779        1.2643595640        9.5638678961
  C         8.7679379058        4.4261657490        9.9233793057
  C         9.5211879880        3.7507145724        8.0383840971
  C        10.2811201397        2.3163211428        9.9777645802
  C         8.9150797493        5.5346489364        9.0822846780
  C         8.5070919329        4.8222538339       11.2415011564
  C         9.4256869667        5.0998340855        7.8785146711
  C        10.1339557740        3.1406850523        6.9447424650
  H         9.8230762289        1.9513695708       10.9185567452
  H        10.5607193197        1.4451097790        9.3264407241
  C        11.4543409508        3.2702055375       10.2813148956
  S         8.4629773745        7.0636108457        9.8481439468
  C         8.1549206161        6.1820885452       11.3204851189
  H         8.3382164277        4.0708245891       11.9124733583
  C         9.8141270387        5.6468013828        6.6892402016
  H        10.2589005996        2.0682541330        6.9956378300
  C        10.5130807924        3.7704320171        5.7669771059
  H        11.2766796932        4.2983555809       10.5297186073
  H        11.9395494596        3.5304980636        9.3525023999
  C        12.3990044720        2.6933229627       11.3788943914
  C         7.5384548130        6.9524411092       12.4595686150
  C        10.3467667719        5.0629218314        5.6101563289
  H         9.7784150490        6.6777549853        6.5079652647
  C        10.8767919643        3.3435848642        4.5060895671
  H        13.2378035336        3.2984702827       11.1845644705
  H        12.6983307403        1.6994212132       11.1798672977
  C        11.8821433366        2.9498699390       12.7905646340
  C         7.4232293465        8.3632928712       12.6480745064
  C         7.1567526956        6.1576661076       13.6106222368
  C        10.8250122711        5.7905964502        4.3604815744
  C        11.0478963371        4.4555595492        3.7096235500
  S        11.3347532260        1.8113585608        3.7639698169
  H        11.8763327689        4.0464078099       13.0659694053
  H        10.8597668631        2.6960696239       12.7815960442
  C        12.7035082584        2.1574006313       13.8160139527
  N         7.6746707693        9.3114754229       11.6370088732
  C         7.2615279321        8.9306921659       13.9069609160
  C         6.8285965635        6.7737148400       14.8132508215
  H         7.0616879031        5.1063462430       13.5149474549
  C        12.0929895523        6.6447360558        4.3657533747
  C         9.7307809865        6.6953791712        3.7354549370
  C        11.3931996020        4.0234479994        2.4008224224
  C        11.4178674954        2.6485832791        2.2583563732
  H        13.6373417361        2.5976200501       13.7995134088
  H        12.8341580705        1.0879550555       13.6193860053
  C        11.9667802437        2.3574032483       15.1206268186
  S         7.7685737560       10.7610422655       12.3412378262
  N         7.5474786700       10.2693422013       13.8399936999
  C         6.9098339694        8.2091340876       15.0480824917
  H         6.5985788215        6.1520117931       15.6718811698
  H        11.8553444289        7.4829267022        4.9693672018
  H        12.3647735573        6.9836611082        3.3502321529
  C        13.2598729333        5.8966595394        4.9308922461
  H         9.3941931753        7.4062991600        4.4313773668
  H        10.1816729137        7.2112992943        2.8995093600
  C         8.5276077742        5.9192004159        3.1198629332
  H        11.4212681730        4.7817365126        1.5907458752
  C        11.7039708908        1.9143613323        0.9684385636
  H        11.7613900393        3.4080533006       15.3441290930
  H        11.0091288538        1.9042566494       15.2635823670
  C        12.8642875770        2.0636381574       16.3787564592
  C         6.6934303661        8.8316959653       16.2883919372
  H        13.0259700424        5.4722984755        5.9494100327
  H        13.7372264215        5.2227670973        4.2523053269
  C        14.4053090045        6.8782157037        5.2539346273
  H         8.0729051828        5.2670541135        3.9172795859
  H         8.8703448070        5.1774201120        2.3194231036
  C         7.4488753670        6.8310322523        2.7112525163
  C        11.7638530336        0.5240876348        0.8235006105
  C        11.9528827744        2.7040705269       -0.2373639800
  H        13.8501561780        1.5623686985       16.2458719571
  H        12.2999984133        1.3550924234       16.9872653337
  C        13.2082097856        3.1839499125       17.3772075809
  H         6.5661309637        9.9448619652       16.4113278962
  C         6.3391203360        8.2589722970       17.5148997649
  H        14.0942305708        7.5001493362        6.1417124816
  H        14.3617101780        7.6571819820        4.4372640491
  C        15.8176360377        6.4078944319        5.3303069385
  H         6.9892048891        7.1389269301        3.6850963889
  H         7.8332744668        7.7452147023        2.1934663770
  C         6.2750107855        6.1127082811        1.9660926118
  N        11.4498697331       -0.4025059237        1.8222576347
  C        11.9822431715       -0.0293630640       -0.4109860684
  C        12.1721706948        2.1463836093       -1.4529621534
  H        11.6929640247        3.7656487553       -0.1437391380
  H        13.9315419963        3.9503055313       16.9602278469
  H        13.6132637864        2.7427369770       18.2903388553
  H        12.4151650700        3.6363984916       17.8062284651
  S         6.1619411820        6.7221080406       17.9995442799
  C         6.3632441997        9.2535680165       18.6619820098
  H        16.0095629413        5.5983650276        4.5885906608
  H        16.4604373627        7.2542511111        4.9579544903
  C        16.0182959146        5.8988480117        6.7621948862
  H         5.8022023601        5.3846886380        2.6117967559
  H         6.5275289517        5.5068535011        1.1050253748
  C         5.1666357964        7.0871388755        1.6449420687
  S        11.5605718547       -1.9308122367        1.1856035767
  N        12.1413641438       -1.4328787776       -0.2392562151
  C        12.2881837716        0.6830031990       -1.5823070849
  H        12.1835392702        2.6848139246       -2.3939031814
  C         5.9778184586        7.2839991998       19.6368725336
  N         5.9667174840        8.6402729321       19.7983310007
  O         6.4938295586       10.4712013568       18.6054845653
  H        15.7082062389        6.6068834071        7.5067269982
  H        15.4200331993        5.0049181261        6.9092455556
  C        17.4202356646        5.4289609603        6.8202155188
  H         5.5411130895        7.6145012525        0.6974980464
  H         4.2524544250        6.5071213011        1.2964070726
  C         4.7782752011        8.2796542747        2.5924279352
  C        12.4261442090       -0.0354462142       -2.8086108353
  S         5.7711103458        6.2122444232       21.0204277443
  C         5.9576844718        9.3156421985       21.0959099997
  H        17.3912005484        4.7311344151        7.6456071779
  H        17.7914427463        4.8117160052        5.9841356551
  C        18.4130962119        6.4904903045        7.0993715936
  H         5.6992001540        8.7889294898        2.9321303129
  H         4.1772396404        8.0855772643        3.4347643784
  C         3.9414994930        9.3067081020        1.8593482251
  H        12.2653496946       -0.9950119830       -2.7727708366
  C        12.8819903063        0.2803680724       -4.0324257904
  H         4.9988813067        9.1748001730       21.5202269822
  H         5.8799223571       10.4249709956       20.9392609846
  C         7.1230850746        8.9800336787       22.0695382781
  H        18.1207037065        7.0287620286        7.9985499377
  H        18.5644867156        7.3073967004        6.4007742103
  C        19.7810849548        5.9384708730        7.3704326425
  H         3.0978461849        8.7572680529        1.3051828784
  H         3.5329857955        9.9319357540        2.5750677384
  C         4.6277451826       10.2166614633        0.8294695331
  S        13.6335732449        1.8299315954       -4.4746240196
  C        13.0268402401       -0.7754760155       -5.0290518759
  H         6.7443635773        8.4529782427       22.9170720692
  H         7.5645778968        9.9508443841       22.4048393591
  H         7.9063857991        8.3472742027       21.6157878126
  H        20.6325780495        6.6297919447        7.6719456687
  H        19.8520770634        5.2953549161        8.2268619388
  H        20.1026993203        5.4754501002        6.4561693515
  H         4.0389930629       10.5371410881        0.0137535681
  H         5.0144810078       11.0384562615        1.3955761365
  H         5.5611058468        9.7924272490        0.4366898069
  C        14.0480672048        1.0451035020       -5.9761208711
  N        13.8163389507       -0.3166637201       -6.0252154385
  O        12.5458203503       -1.9093014614       -4.8124666010
  S        14.7272114345        1.8451707531       -7.4002075671
  C        14.0707418221       -1.0880492370       -7.1878744968
  H        14.4129768526       -2.0979521784       -6.8655089844
  H        14.9584663195       -0.6870835129       -7.6605269228
  C        12.8220546901       -1.1838427931       -8.0103528860
  H        12.1009633066       -0.4309686979       -7.8130718939
  H        12.3832222026       -2.2321056344       -7.8609572834
  H        13.0360003073       -1.1386474173       -9.0269782892
  H        -2.6017598838       15.6245669258       15.9309259168
  C        -2.8188879670       14.5575641611       16.2665904271
  H        -3.8680813788       14.6486642891       16.6457580395
  C        -1.9859304996       14.1502522314       17.5406883999
  C        -2.6724084768       13.5413463145       15.1676538573
  C        -2.8392071429       13.8336184516       18.7576152843
  H        -1.3798672010       13.2519530704       17.3383858456
  H        -1.3506580564       15.0129513128       17.9090504899
  H        -3.6212882346       13.4594843392       14.7236401719
  H        -2.0754779512       13.7595982463       14.3185565319
  H        -2.5879476085       12.4915237566       15.5258345535
  C        -1.9782861185       13.3636380313       19.9572066236
  H        -3.5851661817       13.0734137430       18.5215950176
  H        -3.4412537139       14.7460734476       19.0389688165
  C        -2.5547965975       13.6099280874       21.3351476093
  H        -1.8651943333       12.2350801221       19.8569399940
  H        -0.9217438860       13.7821442631       19.8720669706
  C        -1.5979567216       13.0805769870       22.3779785805
  H        -3.5707463004       13.0966739563       21.5251573239
  H        -2.5273007507       14.6113822904       21.5091909613
  C        -0.3439950484       13.9001929949       22.7278523693
  H        -2.1969348825       12.9448290121       23.2951730478
  H        -1.2143695468       12.0773881075       22.0406687535
  C         0.9109342722       13.2359064052       23.3242865474
  H        -0.1940928699       14.6492089853       21.8794258049
  H        -0.5881183611       14.4252924428       23.6421599535
  C         1.2414104155       11.9224160845       22.5942319863
  C         0.4011968776       12.4971298762       24.5472312208
  C         2.2117176696       14.0517666730       23.5543378048
  C         1.0603349710       10.7942264323       23.4525377566
  C         1.5349273481       11.5473597459       21.2660872707
  C         0.5097371663       11.1588428751       24.6548743738
  C        -0.1814944245       13.0633499527       25.7033066589
  H         2.4464636339       14.6184029733       22.6936370906
  H         2.0152518404       14.8996368212       24.2554589363
  C         3.3550867074       13.1453690461       24.1968320093
  S         1.6040118182        9.3765646744       22.7435573878
  C         1.8103542013       10.1973528697       21.2013320709
  H         1.4322319716       12.2987977326       20.5173717292
  C        -0.0148831373       10.4609800982       25.7007904811
  H        -0.3018551676       14.1373492095       25.6836069425
  C        -0.5327410049       12.3580376520       26.8322809166
  H         3.5478506519       12.1891407975       23.5812033270
  H         2.9830954076       12.7762067186       25.1315598895
  C         4.6935110615       13.8571521795       24.5966173323
  C         2.2771266779        9.5359990395       19.9660100910
  C        -0.4647173828       11.0466200664       26.9271881876
  H        -0.0185182727        9.4684321418       25.7643298855
  C        -0.9981965403       12.7420518795       28.0721529174
  H         5.3061512791       13.2717407575       25.1234832295
  H         4.3927987337       14.7119338683       25.1943645959
  C         5.4798156281       14.4624982828       23.4619233303
  C         2.4806543607        8.0723238622       19.7494368502
  C         2.6899132461       10.3834147689       18.8138295279
  C        -0.9727737090       10.3259981567       28.1388475554
  C        -1.2029951546       11.6375576218       28.8394679948
  S        -1.4201744630       14.2152735386       28.8237934037
  H         6.3290958196       15.0849656416       23.7533575701
  H         4.9486429985       15.1469125521       22.9772903739
  C         6.1124282154       13.3124079415       22.5151522416
  N         2.3711870513        7.0949029108       20.7298530391
  C         2.8078054710        7.5509847907       18.5151445771
  C         3.0766061489        9.8173882751       17.6277810289
  H         2.6367440615       11.4861842136       18.9203894353
  C         0.2527064747        9.4519151707       28.6138667309
  C        -2.2160444622        9.5899046937       27.7743680501
  C        -1.4817620236       12.1094065435       30.1428742282
  C        -1.7366230989       13.4465280807       30.2263531866
  H         7.1555290757       13.4098212670       22.6685733911
  H         5.8161517518       12.3760269056       22.8346691127
  C         5.9555893434       13.5552409396       21.0012856328
  S         2.3026804257        5.6480554062       19.9355027968
  N         2.7036087953        6.1497943760       18.4544034424
  C         3.1313563652        8.3546555129       17.3722292730
  H         3.3373496391       10.5288477777       16.8322322612
  H         0.7479477768        8.9637198784       27.7193241176
  H        -0.0808020195        8.6966053364       29.2809336026
  C         1.4412851872       10.1948286052       29.1404196016
  H        -1.9621564485        8.7795466166       27.1283194511
  H        -2.6069213378        9.2654697968       28.6917251752
  C        -3.3694756578       10.2895529298       27.0360519849
  H        -1.5833079554       11.4051974975       31.0374277355
  C        -2.0367955331       14.2053656986       31.5483539144
  H         5.5179359914       14.5487231108       20.8153127628
  H         5.1882014779       13.0137604506       20.5179094800
  C         7.2914529528       13.5456463902       20.2078898785
  C         3.2668387788        7.7218325144       16.0439070459
  H         1.8375283148       10.7203536678       28.2737960144
  H         1.1728931881       10.8918294593       29.8891095708
  C         2.3863535053        9.1982142179       29.6615546323
  H        -3.0532412866       10.2599964160       25.9905185260
  H        -3.6495234735       11.3112387089       27.3540215682
  C        -4.7791653624        9.6587488681       27.0148616090
  C        -2.0551969003       15.6074475556       31.6499868709
  C        -2.3644276843       13.5025494187       32.8042302816
  H         7.9578719881       14.3102230383       20.5699684721
  H         7.7018933984       12.5593017560       20.3508821500
  C         7.0846133548       13.9947445778       18.7835294117
  H         3.0357740939        6.7321643875       15.9663804201
  C         3.6344031253        8.2057499795       14.7926201065
  H         2.5855744100        8.5332607335       28.9222387432
  H         2.0573155809        8.5968279120       30.4775683575
  C         3.7679668617        9.8061974241       30.1219746279
  H        -4.7033287802        8.6285440418       26.7602372183
  H        -5.1224268662        9.7014854000       28.0374898357
  C        -5.7489448550       10.5269674433       26.2179952410
  N        -1.8914250832       16.4318252438       30.6245051668
  C        -2.3409180538       16.3056960070       32.8124362986
  C        -2.5322187381       14.1589764811       33.9593173010
  H        -2.1292007491       12.4637218358       32.8545083008
  H         7.7680193824       13.5734056676       18.0820121564
  H         6.0378035440       13.8747080154       18.4301296554
  H         7.2424355209       15.0012128456       18.7941136154
  S         3.8819371768        9.8579502291       14.3318193265
  C         3.7122824168        7.2801009347       13.6645710000
  H         3.9325144296       10.6424804513       29.4192775752
  H         3.5976461933       10.1216218259       31.1819011937
  C         5.0313986255        8.8871164553       30.1715347958
  H        -5.1638777437       11.2435341019       25.5684081099
  H        -6.3202948000       11.1067409730       26.9079464981
  C        -6.7104782061        9.8047672510       25.3052638509
  S        -1.9573554076       17.9516228059       31.0942338140
  N        -2.3412875900       17.7102283653       32.6437574966
  C        -2.5552210660       15.6042056277       34.0103395308
  H        -2.6273066114       13.5422922937       34.8427556089
  C         4.2362706932        9.2378147906       12.7243347106
  N         3.9963815262        7.9354400498       12.5188567510
  O         3.7220012403        6.0277198503       13.7823393297
  H         5.9221864070        9.3488846978       30.5769430438
  H         5.2735228638        8.4247294006       29.1471003757
  C         4.7400419347        7.7854489288       31.2240342407
  H        -6.2029618519        9.2577059924       24.5574755446
  H        -7.2806004409        9.0581194425       25.8533979543
  C        -7.6673426572       10.8322211813       24.7746552543
  C        -2.6534997062       16.3905902749       35.2067416550
  S         4.6378444380       10.3332699977       11.3678213657
  C         4.1568939223        7.3378036036       11.1752397665
  H         4.4402107715        8.2655798041       32.1716640985
  H         4.0207757036        7.1035539130       30.8394175798
  C         5.9503014364        6.9859395779       31.4693255211
  H        -7.2575670070       11.3665102558       23.9235382038
  H        -7.8753090747       11.5699492489       25.4451948228
  C        -8.9402528362       10.0226673328       24.5396700190
  H        -2.2480348002       17.3522245587       35.1046621025
  C        -3.3051056072       16.1161922328       36.4033375326
  H         4.5061542435        8.1049793598       10.4181795356
  H         4.9099660979        6.5473875199       11.0984375898
  C         2.8045953772        6.8752792979       10.7059294406
  H         5.8286419714        6.4569941604       32.4100671447
  H         6.6819979086        7.6692751085       31.8747491167
  C         6.3245824658        6.0176828397       30.3132855214
  H        -9.5460946400       10.4712587982       23.7786812768
  H        -8.7483073891        8.9241086369       24.4564007633
  C        -9.7586072406       10.1225374142       25.8064257997
  S        -4.0456158898       14.6196279314       36.7717736029
  C        -3.3015197214       17.1850260318       37.3690366471
  H         2.9778595582        6.6677452282        9.6639262489
  H         2.6120605097        6.0826272118       11.4420905684
  H         1.9760645473        7.5538652592       10.8239255597
  H         6.7449015427        5.1742763843       30.8256233105
  H         7.0366543505        6.4197293426       29.5932675250
  H         5.4934666398        5.6893215070       29.7804054956
  H        -9.2448667529        9.7133046534       26.6651737649
  H       -10.7564032550        9.6357620512       25.7658055585
  H        -9.9131790223       11.1538976969       26.1188096581
  C        -4.3045662858       15.3877827698       38.3955088095
  N        -4.0363759376       16.7371020098       38.4086458484
  O        -2.7972800599       18.3438600079       37.3659815336
  S        -4.9946074028       14.5366156109       39.8166661873
  C        -4.3207705484       17.5165633770       39.5623213845
  H        -4.5946498137       18.5602119639       39.3088405121
  H        -5.1782573584       17.2655009188       40.1229098133
  C        -3.0531486900       17.3885644653       40.4579764774
  H        -2.6862488939       18.2610232419       40.9430339857
  H        -3.3336091008       16.7694390293       41.3191240041
  H        -2.1788972529       16.7998533313       40.0378186771
