352
i=
  H         4.6382096156        1.8524954635       12.5187572564
  C         3.7268411210        2.4462098032       12.6795292937
  H         3.9222549799        3.5338903668       12.5275381431
  C         2.7854168855        2.3458365496       11.4607787969
  C         2.9745427449        2.3066187993       13.9877773892
  C         3.5336565476        2.6373296130       10.1711820638
  H         1.9473119712        2.9447177691       11.5644435796
  H         2.3453552301        1.3306547717       11.3184955116
  H         2.0818221078        2.8614856027       14.0406625986
  H         3.6440737435        2.5715714326       14.7892925451
  H         2.6745187330        1.2752654605       14.0876668412
  C         4.6647991160        1.6224623295        9.8147087921
  H         2.7496353752        2.6355164893        9.3758064211
  H         3.8728947882        3.5901027062       10.2981240581
  C         5.3683700187        1.8698402530        8.5043708642
  H         4.3093383088        0.5628306077        9.8406398121
  H         5.2921015439        1.5916945938       10.6525444803
  C         6.6426073419        2.6726224255        8.7127924933
  H         4.7270203915        2.2957890825        7.7517791795
  H         5.7542564595        0.9574595549        8.0737082571
  C         7.7586622658        1.9716437886        9.3996095242
  H         6.8948128771        3.0048170211        7.7051434120
  H         6.3609953277        3.5829858192        9.3062892184
  C         9.0415647341        2.7925544568        9.6033889483
  H         7.9198213771        1.0840377729        8.7975588290
  H         7.4358117632        1.5440097088       10.3831244054
  C         8.8058547152        4.0740572800       10.3626631780
  C         9.4793526277        3.4864670869        8.3341809842
  C        10.1888692630        2.0036572612       10.2944086832
  C         8.9922572345        5.1651181354        9.4876393604
  C         8.3984910050        4.4620895703       11.6246925346
  C         9.4657981995        4.8421073782        8.2333764989
  C         9.9179133759        2.9059494523        7.1286618486
  H         9.9002525360        1.4209169891       11.1575289071
  H        10.5007810877        1.2052259221        9.6148900929
  C        11.4593299797        2.7832640519       10.7505237348
  S         8.5379511841        6.6481574133       10.2206012901
  C         8.2054607145        5.8415990653       11.6803852230
  H         8.2501667873        3.6643774344       12.3443499268
  C         9.7918425970        5.4918189372        7.0464817684
  H         9.9825383507        1.8570997213        7.1519146196
  C        10.1812917222        3.5059186668        5.9218697180
  H        11.1121637458        3.5276828900       11.4612664355
  H        11.6993546639        3.4070581428        9.9371082625
  C        12.7043664200        2.0533534542       11.4157584149
  C         7.5651158753        6.6056563193       12.8179981992
  C        10.2007039306        4.8875349185        5.8601732663
  H         9.7143365603        6.5258066127        7.0017218389
  C        10.6142715113        3.1762137501        4.6090055418
  H        13.5855329443        2.5184332218       11.0049383096
  H        12.7712651020        0.9651355280       11.2500534325
  C        13.0641960842        2.1589950087       12.8795909303
  C         7.6188494114        8.0231161865       13.0696042929
  C         7.0125614747        5.7849981937       13.9157334065
  C        10.5417058117        5.5622822015        4.5899985902
  C        10.7947334925        4.2741178157        3.7809440803
  S        10.9264509724        1.7329279159        3.7912640143
  H        13.9648859409        1.6314486753       13.1141652205
  H        13.3311285295        3.2059133777       13.1075685168
  C        11.9434297815        1.7180856195       13.7381942903
  N         7.9625971239        8.9598867487       12.1177963816
  C         7.3153564094        8.5972184244       14.2591445014
  C         6.8124367216        6.3772114012       15.1927057922
  H         6.8326029441        4.7812894561       13.7217946640
  C        11.8994546886        6.2991807749        4.6990555294
  C         9.3765563125        6.3714000743        3.9976587666
  C        11.1774210671        3.9205961523        2.5077831474
  C        11.2378160836        2.5650645689        2.3673488638
  H        11.9789814311        0.6144681777       13.9621584737
  H        10.9892697645        1.9590188447       13.2049953073
  C        11.8381879711        2.2213444154       15.2287190496
  S         7.7998334476       10.4392414248       12.7067262676
  N         7.3069439248        9.9783221011       14.2054183911
  C         7.0047315393        7.8074348285       15.4019207801
  H         6.4292148212        5.6990544841       15.9634358934
  H        11.7542579982        7.1390068415        5.2796588496
  H        12.1510402622        6.6872229387        3.6988789035
  C        13.1155307998        5.4633968775        5.1288001842
  H         9.0772452164        7.0486773175        4.7781587639
  H         9.7111984592        6.9528776379        3.1607897646
  C         8.1633965221        5.5840161141        3.5193552414
  H        11.1553670443        4.6934933207        1.7748890771
  C        11.6129911938        1.8625787154        1.1518633955
  H        11.7854207624        3.2298528192       15.2369049297
  H        10.8722477748        1.8573082076       15.5389902374
  C        12.9470789064        1.6696143388       16.1072318434
  C         6.7895847980        8.4353125345       16.6678890418
  H        12.7434186072        4.7543437447        5.8102908744
  H        13.6506421992        5.0099436411        4.2702115477
  C        14.2799185511        6.3088132046        5.6284772106
  H         7.8073262372        4.9910120792        4.3571506018
  H         8.4180548029        4.9493170853        2.7290745914
  C         7.1048579162        6.5450315299        3.0467603712
  C        11.8494685747        0.4663832147        1.0242173892
  C        11.7785464695        2.5912658730       -0.1188002918
  H        13.9052985292        1.7306882272       15.6219267440
  H        12.7659230545        0.6103568906       16.1184600565
  C        12.8809263057        2.2649425763       17.4778090242
  H         7.1181490414        9.4670496544       16.6724089416
  C         6.4903942699        7.9063958982       17.9047600985
  H        13.8574804857        6.9227881959        6.4326364048
  H        14.5159462170        6.9385947362        4.7447648915
  C        15.4749315683        5.4949528992        6.0685034712
  H         6.5999777133        6.9524182713        3.9837655881
  H         7.5383886869        7.3809606955        2.5016944315
  C         6.1814044478        5.7504991673        2.1424074202
  N        11.7452666714       -0.4674028264        2.0653660757
  C        12.1953600794       -0.1510497236       -0.1893481986
  C        12.2110155675        1.9639095360       -1.3047238721
  H        11.7523531881        3.6459792409        0.0153924911
  H        11.8597505319        1.9830098823       17.9419514237
  H        12.8987149671        3.3563024937       17.3564460723
  H        13.6721900296        1.9310448057       18.1133821405
  S         6.0911749336        6.3141763407       18.3703280065
  C         6.2939071990        8.9076570392       18.9929694671
  H        15.0964671253        4.8701809971        6.8633818866
  H        15.8612890434        4.7795616908        5.2564004726
  C        16.6676855513        6.1951490375        6.6646618765
  H         6.1012938995        4.7483311678        2.7167121033
  H         6.6734049681        5.5043036145        1.2207623415
  C         4.8522722107        6.5293453321        1.9003497987
  S        11.9468518742       -1.9270779601        1.4324235338
  N        12.4116558320       -1.5283818830       -0.0568141067
  C        12.4123814948        0.4832991955       -1.4187764981
  H        12.4270083125        2.5733293993       -2.0988193497
  C         5.9322319386        6.9815028987       19.9792027305
  N         5.8707021496        8.3133467405       20.1417720389
  O         6.4293725754       10.1470472595       18.7546473431
  H        17.2192825236        6.7989042360        6.0195812361
  H        16.4132550415        6.8496053074        7.4313989541
  C        17.6295689989        5.2216359048        7.3123915776
  H         4.0795823596        5.7244307515        1.9398055730
  H         4.7580666342        7.3206969294        2.6356807367
  C         4.8507243718        7.2536337784        0.5456870693
  C        12.7676923451       -0.3144724557       -2.5389535192
  S         5.4804407140        6.0925333529       21.3979113228
  C         5.9922666737        9.0748295888       21.3630632208
  H        17.3239398679        4.8508831377        8.3018224228
  H        17.8018011898        4.3224094013        6.7123087569
  C        19.0257458632        5.8853183960        7.5026199121
  H         4.8012867342        6.5415644086       -0.2907183227
  H         5.7611452646        7.7560632840        0.3384874139
  C         3.7780265537        8.3528087973        0.2759242359
  H        12.4516559925       -1.3069671174       -2.5060354786
  C        13.3420013005       -0.0331144515       -3.7460649604
  H         5.2343574433        8.8936389978       22.1197613593
  H         5.7164736821       10.1467911957       21.1875510958
  C         7.3834812686        8.9189880892       22.0076762801
  H        19.3482037622        5.6892787384        8.5368716401
  H        18.9308123607        6.9170556479        7.5389585269
  C        20.0862264968        5.5791191232        6.3639462904
  H         3.6460953456        8.6040282077       -0.7696100783
  H         2.7582075855        8.0303953172        0.5330644277
  C         4.0256652878        9.6519042511        1.0525057674
  S        13.9041579910        1.5640707235       -4.1279597460
  C        13.4891277172       -1.0853469898       -4.7596068078
  H         7.7889393026        7.9544992596       22.1907234614
  H         7.6216606221        9.2852321499       23.0545558709
  H         8.0993639408        9.4003185639       21.3145365249
  H        20.4213583579        4.5458879199        6.5088872907
  H        19.6772294616        5.6737754363        5.3642017554
  H        21.0003377695        6.1350861714        6.4561099638
  H         4.9757223095       10.0071813729        0.7556335607
  H         3.2887935028       10.3952147865        0.7242567271
  H         3.9750185614        9.5191571486        2.1136268898
  C        14.3087078694        0.8061200572       -5.6304436131
  N        14.0550930447       -0.5156728598       -5.7735294362
  O        13.0465013297       -2.2376762222       -4.6423695685
  S        14.7698073455        1.6595523426       -7.0068595332
  C        14.3248157019       -1.2485188570       -6.9536577943
  H        14.6318875780       -2.2429693473       -6.6931814850
  H        15.1930818445       -0.8635895370       -7.5570049941
  C        12.9779485892       -1.2246061071       -7.8250278209
  H        12.1006446903       -1.6475907609       -7.3180187423
  H        13.0191972055       -1.9697337833       -8.6520897102
  H        12.6873963975       -0.3427777059       -8.2819624628
  H        -1.3623403024       14.5311263776       15.9737336831
  C        -2.1889143263       13.9381318650       16.3921276152
  H        -2.8229012075       14.7667736548       16.5857027630
  C        -1.7795526654       13.1839190814       17.6157539870
  C        -2.7552494172       13.1229602325       15.2560387195
  C        -2.1849551571       13.7252632021       18.9807412466
  H        -2.1840569745       12.1854506000       17.4101151837
  H        -0.7439831762       13.0783592782       17.5266365100
  H        -2.8415860251       13.9058379221       14.5247290811
  H        -2.0364185814       12.4629210874       14.8122388655
  H        -3.7354836871       12.6908432577       15.5748160744
  C        -2.6437125213       12.5459187822       19.7661542352
  H        -3.0446512930       14.4502083246       18.7885011627
  H        -1.3513295551       14.2119420524       19.4515934682
  C        -2.9425398452       12.9688667585       21.1793368009
  H        -3.6676968098       12.1728206936       19.4535697936
  H        -1.8742683550       11.8239054026       19.7322398454
  C        -1.9397762851       12.5546843333       22.2885679878
  H        -3.8196236464       12.3362567038       21.4061133621
  H        -3.3887659581       13.9633586205       21.4037602643
  C        -0.7851222975       13.5864858245       22.5229103119
  H        -2.4775356604       12.5934319496       23.1977210829
  H        -1.6649875091       11.5329544217       22.0055474039
  C         0.5082181942       12.9841115809       23.1792659879
  H        -0.4623825491       14.1147499864       21.6146107316
  H        -1.2224944109       14.3824973295       23.1215961836
  C         0.9087894240       11.6488263997       22.4314372399
  C         0.2358873799       12.2730382944       24.4734106303
  C         1.6706542027       13.9931339756       23.3171725050
  C         0.7091381739       10.5612555953       23.3221674684
  C         1.2817024963       11.2109676066       21.1538559231
  C         0.3722227392       10.9368806056       24.6046845665
  C        -0.2317469237       12.8656438516       25.5844796372
  H         1.7250575222       14.5783406831       22.3850247336
  H         1.5778275008       14.6772227177       24.1323716321
  C         2.9945530850       13.2410284183       23.4551394527
  S         1.3231059977        9.0548788546       22.6415927890
  C         1.6568288052        9.8692638207       21.1702928627
  H         1.4854123583       11.8953523753       20.3650555786
  C         0.1050126657       10.2930990001       25.7551201557
  H        -0.4432076956       13.9314463166       25.5358787252
  C        -0.4761519517       12.2331875688       26.7671477941
  H         3.2215233095       12.7025302976       22.5193722633
  H         2.7854770886       12.4671682623       24.1901971778
  C         4.1538866101       14.0707796092       24.0061499113
  C         2.1890715681        9.2156823734       19.9526887625
  C        -0.2605215780       10.9463707896       26.9363212410
  H         0.0782821953        9.2472243971       25.8116003953
  C        -0.7924591725       12.6938664235       28.0180632140
  H         4.7610471189       13.3482504348       24.6204029021
  H         3.7672016896       14.7157011578       24.7881439485
  C         4.9721712867       14.7209596120       22.8947962747
  C         2.3548800097        7.8385838699       19.7721989585
  C         2.7654296126       10.0818645105       18.8723739679
  C        -0.7307579005       10.1960893893       28.2156238473
  C        -0.9768453765       11.6175443110       28.8675930648
  S        -1.0156397339       14.2230860972       28.7507989665
  H         5.4042220104       15.6249601980       23.2854579899
  H         4.3171783718       14.9556840486       22.0573136263
  C         5.9796877705       13.7336520781       22.2787332470
  N         2.0924474619        6.8528078196       20.6869446016
  C         2.7211169926        7.3037706931       18.5511704398
  C         3.0554775263        9.5356790244       17.6326641205
  H         2.7968790484       11.1505012396       18.9912685373
  C         0.4364831531        9.3908114526       28.7433272850
  C        -1.9881284621        9.3831858884       28.0139299570
  C        -1.4034926046       12.0349985797       30.1379160837
  C        -1.3366920463       13.3979023616       30.2380549092
  H         6.9476977772       13.9943054660       22.7193354024
  H         5.6640067984       12.7205274112       22.5854354920
  C         6.0218309067       13.7098897815       20.8081212104
  S         2.2663946841        5.3996145931       19.9980839850
  N         2.6432860306        5.8701523066       18.5177011186
  C         3.0512629128        8.0700329571       17.4042364997
  H         3.3839336920       10.2472555214       16.9025308920
  H         0.6618566336        8.7087003166       27.9537208296
  H         0.1131942789        8.5433856898       29.4004871265
  C         1.8011520307       10.0639596411       28.9916109426
  H        -1.7875307287        8.3476591997       27.5620700030
  H        -2.4580908768        9.2197859573       28.9612497573
  C        -3.0441361335       10.0028635061       27.0897190893
  H        -1.7051451912       11.2692679076       30.8429780465
  C        -1.5322738930       14.2156910293       31.5495964090
  H         5.9628147283       14.6892037095       20.4185863679
  H         5.2370784676       13.0748455248       20.4230302689
  C         7.3580181330       13.2806463433       20.2553416337
  C         3.2124602662        7.3557401752       16.1370128458
  H         2.3141078123       10.0086233819       28.0075104323
  H         1.6905584901       11.1516285121       29.2099275753
  C         2.5828438560        9.4353598184       30.0635438684
  H        -2.6774093337       10.0671861788       26.0639297743
  H        -3.2515914470       10.9422151999       27.6010283641
  C        -4.2844964410        9.1985895780       27.0893704143
  C        -1.5757695038       15.6407667601       31.5589146022
  C        -1.6698822298       13.4875111413       32.8616649144
  H         8.0831705999       14.0815843442       20.4067305719
  H         7.7424327675       12.4057987155       20.8614980166
  C         7.3151969857       13.0688571207       18.7623841183
  H         2.8169576043        6.3265219717       16.0987887920
  C         3.5188212787        7.7340746446       14.8131237535
  H         2.5507611070        8.3259129114       29.9950627020
  H         2.0720708083        9.6998013743       30.9888178040
  C         4.0128301230        9.9155408263       30.1088304930
  H        -4.1738454446        8.4887007755       26.2767903676
  H        -4.3310580123        8.5198533785       27.9227940077
  C        -5.5945037941       10.0891647989       26.9269546829
  N        -1.3691888350       16.5208867690       30.4882455117
  C        -1.9334224503       16.3228684727       32.7424812026
  C        -2.0210019899       14.1926795680       33.9658590717
  H        -1.5628811203       12.4152251970       32.9809463029
  H         7.6742098896       12.1121032833       18.5348194300
  H         6.3422371148       13.2302152946       18.2785374264
  H         8.0898484370       13.7924380745       18.3004019885
  S         3.7446358375        9.3613634171       14.2761143020
  C         3.6326229167        6.7102207163       13.7388898874
  H         4.1637219793       10.7188694053       29.4018786305
  H         4.1043978438       10.3300369472       31.1335824078
  C         5.0199111711        8.8687640476       29.9340938796
  H        -5.3307340268       10.9892318065       26.3417397047
  H        -6.0227842644       10.4364935538       27.8856229217
  C        -6.6084905472        9.4601349754       25.9659510508
  S        -1.7020178933       17.9970594249       30.9220126005
  N        -2.1150429935       17.6476829699       32.4674547750
  C        -2.1962156719       15.6872504561       33.9374518157
  H        -2.0283914963       13.6642425850       34.9263972291
  C         4.2085616496        8.6377000198       12.6766092240
  N         4.1044051606        7.2973378829       12.5823758496
  O         3.3103968662        5.5414449062       13.7951909368
  H         5.9940168858        9.3593541859       29.6700752258
  H         4.6968690549        8.2884958355       29.0176928356
  C         5.1919881346        7.9578355993       31.1691345212
  H        -6.0685413286        8.6708982142       25.4376308621
  H        -7.3251236149        8.8997891185       26.5623627705
  C        -7.2164887563       10.5485794814       25.1252290255
  C        -2.5233773498       16.4401960861       35.0800455176
  S         4.7735085003        9.5420400841       11.2427224170
  C         4.0647628901        6.6350729650       11.3364985034
  H         5.3047523644        8.5165733903       32.0924584516
  H         4.3336361450        7.4264840685       31.2498928586
  C         6.4072846212        7.1023477036       30.9727380217
  H        -6.6211650715       10.9118868616       24.3049759369
  H        -7.3948808451       11.4464409153       25.7934701196
  C        -8.5880663514       10.1198723674       24.5178889309
  H        -2.5635270158       17.4502648878       34.8893147049
  C        -2.9338870749       16.0235165417       36.3632124826
  H         4.8993156924        6.9997567428       10.6742488437
  H         4.1966082516        5.5819262531       11.5503285825
  C         2.6644040516        6.8044190892       10.6418214815
  H         7.3415303692        7.6869353612       31.0096484375
  H         6.2140436141        6.5960975329       30.0297879295
  C         6.5282614290        5.8811815464       31.9432283301
  H        -8.7036950966       10.6135043334       23.4954457030
  H        -8.6618342186        9.0407078038       24.2705111959
  C        -9.7429342615       10.3320239182       25.4611942104
  S        -3.2842650914       14.5150532878       36.9548782287
  C        -3.2512984197       17.1002444476       37.3368133635
  H         2.8650428710        6.9980026427        9.5602563616
  H         2.0652559123        5.9358183343       10.7968681061
  H         2.1537142517        7.6408067611       11.1223741362
  H         7.1334727175        5.0677972006       31.4493222920
  H         5.5404214609        5.5564624130       32.2773954203
  H         7.0782836541        6.1694801670       32.8033555533
  H       -10.6736137615       10.2295433343       24.9726471425
  H        -9.6963815383       11.2214400738       26.0146139191
  H        -9.6550479208        9.5269143566       26.1575709192
  C        -3.9400524651       15.3159700189       38.4274079205
  N        -3.8995021989       16.6482478261       38.4108778970
  O        -2.9366812577       18.2950616505       37.1220608017
  S        -4.7953083090       14.5488484610       39.7364602481
  C        -4.0435411202       17.4615468569       39.5838988204
  H        -4.0063999022       18.5122109027       39.3357294156
  H        -5.0283084376       17.3227736231       40.0595823887
  C        -3.0184358283       17.1629618175       40.6616750873
  H        -2.2297804477       16.4330825831       40.3763418205
  H        -2.4028823177       18.0643372683       40.9044967788
  H        -3.6008770139       16.8929132697       41.6054897561
