352
i=
  H         4.4106747520        1.4021924036       11.9566516900
  C         3.7550148322        2.2658399595       12.1300252267
  H         4.4735712372        3.0547863933       12.1085800765
  C         2.6987894905        2.1240147564       11.0109412052
  C         2.9584557675        2.3317679743       13.4365502620
  C         3.3236628597        2.3686494287        9.6204431933
  H         1.9625576606        2.9285801465       11.1686376704
  H         2.1879137878        1.1988086245       10.9607372883
  H         2.6117349302        1.3265962254       13.7300492357
  H         2.2613443403        3.1544699652       13.5379290367
  H         3.6910761428        2.5049888642       14.2022310854
  C         4.2855697675        1.2351105705        9.1565115720
  H         2.4962161647        2.6877009269        8.9116198091
  H         3.8394952867        3.3158235711        9.6431171201
  C         5.1867602015        1.6726995908        8.0288531744
  H         3.7794960937        0.3170867087        9.0036369649
  H         4.9499343398        0.8798405165        9.9669045093
  C         6.4343235397        2.4058687946        8.4263579928
  H         4.6855399930        2.3690094190        7.3977032856
  H         5.4571263567        0.7841768424        7.5180634014
  C         7.7261727925        1.6186629385        8.8784343808
  H         6.7181761098        3.0340418698        7.5851843013
  H         6.1575468466        3.0571418583        9.1835939441
  C         9.0688608920        2.4666463886        9.0678898672
  H         7.9168035930        0.8164956087        8.2808473837
  H         7.4491372291        1.3110007823        9.8781609058
  C         8.7970074267        3.8298889429        9.8201627754
  C         9.4502147507        3.2247287280        7.7935100324
  C        10.1465284164        1.6874348106        9.8391420702
  C         9.0557012263        4.9166320084        9.0237362941
  C         8.2342089739        4.1246113732       11.0573665936
  C         9.4427082544        4.5551184385        7.7598323553
  C         9.8562731853        2.5806314126        6.6254465990
  H         9.7132760081        1.4144842752       10.8225702815
  H        10.4474210965        0.8255949116        9.3001779339
  C        11.4199806855        2.5520439532       10.1620190649
  S         8.5103774687        6.4067752997        9.7449010047
  C         8.0233922700        5.4722585494       11.1937582326
  H         8.1175706702        3.2930156358       11.7463932997
  C         9.7751591581        5.2444418303        6.5946676627
  H        10.0035554718        1.4884606059        6.6582442631
  C        10.2006688809        3.2313666943        5.4445300801
  H        11.2241930964        3.4310987557       10.7982766593
  H        11.7575589003        3.0041093238        9.2068009483
  C        12.5420292852        1.8253516644       10.9574841669
  C         7.6364937887        6.1985632384       12.4949592409
  C        10.1667373148        4.5768094887        5.4058466462
  H         9.8519392618        6.3004291108        6.4954073749
  C        10.6427299356        2.9108761398        4.1520110835
  H        13.4274278323        2.4096246387       10.8405036533
  H        12.8030940921        0.9101888568       10.4561170270
  C        12.2673739196        1.6916164609       12.4036178336
  C         7.6042420153        7.5945014505       12.7636028326
  C         7.3135702559        5.3127320706       13.6493256355
  C        10.5328990798        5.2500485066        4.1298028729
  C        10.8377028757        4.0053951648        3.3803728322
  S        10.9759242766        1.4410864066        3.3931308424
  H        11.6522976785        2.4508075290       12.7570675159
  H        11.8000903580        0.6857169308       12.5695267162
  C        13.5123487593        1.7223660758       13.3091968231
  N         7.9508851659        8.5812329548       11.8520963352
  C         7.3231524279        8.1112962777       14.0127159265
  C         7.0073642147        5.8540535621       14.9153171091
  H         7.3262328844        4.2486682226       13.5124872318
  C        11.7692985493        6.2335225699        4.3729229533
  C         9.4613622513        6.0894486198        3.3882004382
  C        11.2659673368        3.6514018513        2.1101054766
  C        11.4957973234        2.3337447846        1.9734733303
  H        13.6775764509        2.7843532892       13.5063486961
  H        14.3613180490        1.4145390881       12.6867931083
  C        13.4113210557        1.1051859233       14.7299919373
  S         7.7815091894       10.0286805063       12.5347833452
  N         7.5519841765        9.5231363703       14.0565985914
  C         7.0102826216        7.3013513260       15.0874583091
  H         6.7901565228        5.2062580832       15.7436820080
  H        11.5579433122        7.1109753907        5.0264437651
  H        11.9620247240        6.5262838010        3.3588153154
  C        12.9576582720        5.4283991024        4.8720762722
  H         9.5124071542        7.1062552356        3.6889747841
  H         9.7644724253        6.1777424746        2.3676697074
  C         8.1090440258        5.5466060088        3.4493766213
  H        11.2876890066        4.3556142942        1.2681587315
  C        11.8679333130        1.6153494641        0.7555356428
  H        13.3292434930        0.0420870335       14.6943419023
  H        14.4104080549        1.4173674937       15.2174700797
  C        12.3576698031        1.7505797485       15.6242299557
  C         6.7290693276        7.9648852020       16.3464372738
  H        12.7104615792        4.9060158498        5.8034162360
  H        13.2657419281        4.7393849192        4.0783094745
  C        14.2284126475        6.2654766627        5.1832123626
  H         7.6903195740        5.6919248411        4.4516099776
  H         8.0561679160        4.4498303082        3.4181220990
  C         7.0916320902        6.1971979433        2.5028196745
  C        11.8268036651        0.1746966899        0.6694726498
  C        12.0537456939        2.3480495445       -0.5695888139
  H        11.4112270531        1.2720219513       15.6029797657
  H        12.0527948962        2.7219555636       15.2958865366
  C        12.9545903128        1.9085656523       17.0958242065
  H         6.7337801512        9.0302652113       16.2535504215
  C         6.5269080650        7.5334800790       17.6241588291
  H        13.9509934579        6.8888122276        6.0533300625
  H        14.6069737293        6.8824069439        4.4338471464
  C        15.3748331212        5.3116035402        5.5670599734
  H         7.0214353341        7.2836774287        2.7456448706
  H         7.3612448599        6.2103447390        1.4722194608
  C         5.7368736738        5.4965139472        2.7068942235
  N        11.6453181560       -0.7718201520        1.6975961703
  C        12.1478289164       -0.4925741088       -0.5199718349
  C        12.3877619698        1.6600386375       -1.7211482677
  H        11.8804650409        3.3777505723       -0.5875964401
  H        13.7611276956        2.6114349723       17.1315945679
  H        13.2989754576        0.8868140940       17.3792619659
  H        12.1837644792        2.3420146167       17.7651617045
  S         6.2233704070        5.9586588823       18.0919877844
  C         6.4459624086        8.6243708421       18.6439619483
  H        15.1597295521        4.4233821388        6.1160646244
  H        15.7810612600        5.0225611107        4.6149378674
  C        16.5219146438        5.9087398328        6.3181478399
  H         5.3199049331        5.6333656591        3.6334128234
  H         5.7127285529        4.4127112188        2.4405584298
  C         4.7012951457        6.1732625703        1.8035411706
  S        11.7050970742       -2.2431710147        1.1402419786
  N        12.1192438368       -1.8542525060       -0.4008721937
  C        12.5417897572        0.1921473964       -1.7188424083
  H        12.4464117864        2.2268168887       -2.6407207382
  C         6.0510208632        6.7166787021       19.6736227579
  N         6.1043629311        8.1126355418       19.7493957356
  O         6.5679724655        9.8262757782       18.4062984590
  H        16.9716688784        6.5682703723        5.6107508770
  H        16.2002870040        6.5914886993        7.1022907819
  C        17.5870987446        5.0325115505        6.9095181988
  H         5.0256137679        6.3714346175        0.7504934274
  H         3.9377601184        5.4252812787        1.6235298126
  C         4.0464957597        7.4427124722        2.4731631772
  C        12.8220229104       -0.6219564973       -2.9130414314
  S         5.5892242738        5.7894964046       21.0656438271
  C         5.9267993496        8.9441037256       20.9476065060
  H        17.3496454842        4.8070761047        7.9376746598
  H        17.7557446265        4.1101746923        6.3099917668
  C        18.9335328106        5.7825210165        7.0164463181
  H         4.4851482345        7.7002957849        3.4652499491
  H         3.0193260447        7.1646340793        2.7355671850
  C         4.0348427926        8.7322610725        1.5225725512
  H        12.5064107400       -1.6317925865       -2.8451150679
  C        13.3779466750       -0.2443944399       -4.1370426316
  H         5.1907000210        8.4572156974       21.6229689428
  H         5.4405421193        9.9405738707       20.8234538948
  C         7.2716826156        9.1802281489       21.6138261896
  H        19.7249984538        5.3811966179        7.7321103506
  H        18.8958758195        6.8498544865        7.2407468569
  C        19.5522137531        5.7736109718        5.6134357866
  H         5.0244860700        8.7774447343        1.1448404124
  H         3.3081804414        8.6262260467        0.6687279165
  C         3.7651177856       10.0556685691        2.1485647951
  S        13.8851087845        1.2608910095       -4.6518559593
  C        13.4035646430       -1.3607468927       -5.1888786606
  H         7.3994163990        8.5001504407       22.4154479266
  H         7.3555565221       10.2387638808       21.8776025694
  H         8.0244068560        8.9961627212       20.8000678069
  H        20.5949403162        6.1161736066        5.9231964558
  H        19.5537701775        4.8119801092        5.1765791139
  H        19.0501294541        6.5968174014        4.9565419636
  H         2.9580813332        9.8177373375        2.7835569563
  H         4.6347838852       10.3904345990        2.7164578056
  H         3.5673826738       10.7843410540        1.3346111975
  C        14.2813680664        0.4672847666       -6.2269700941
  N        13.9410738602       -0.8259489675       -6.3050224366
  O        13.0542706616       -2.5477276152       -4.9618054903
  S        15.0190277892        1.2222491952       -7.5939963314
  C        14.1605852315       -1.6888355723       -7.4284499078
  H        14.0584771313       -2.7845354969       -7.2075639743
  H        15.1278985025       -1.4933197014       -7.8797979325
  C        13.0784200018       -1.4414425543       -8.4011625724
  H        13.3065494818       -0.6195710379       -9.0599845115
  H        12.0973917104       -1.4420376793       -7.8935607513
  H        13.0573780238       -2.3671570240       -9.0616902338
  H        -3.5502942182       14.4917004424       16.0398850410
  C        -3.2712301490       13.4836193368       16.3633218583
  H        -4.0894071636       13.0592255975       16.8986868467
  C        -2.1955815971       13.5537110180       17.3625533069
  C        -3.0491474599       12.6332692209       15.0919462208
  C        -2.8098255146       13.3199230990       18.7756926588
  H        -1.5577368200       12.6890815822       17.2252373433
  H        -1.5867786925       14.4007633125       17.2422376901
  H        -2.3940524590       11.8239843491       15.2518023833
  H        -4.0121087423       12.1235580939       14.7190189406
  H        -2.6877052171       13.2031755005       14.2657960306
  C        -1.7921097594       13.5934391204       19.9243830097
  H        -3.0434628019       12.3028741531       18.9477548572
  H        -3.6434078502       13.9277470093       18.9274818079
  C        -2.4100322066       13.3992990548       21.3146778109
  H        -0.8722108253       13.0042015043       19.7102912368
  H        -1.5976097849       14.6543846344       19.8613038071
  C        -1.4689970432       12.7574554337       22.2677645488
  H        -3.2979648646       12.7839243241       21.1129774490
  H        -2.7082267934       14.2685844636       21.8720250566
  C        -0.2418167580       13.5402341170       22.6262424834
  H        -2.0290311935       12.5732917914       23.1912321043
  H        -1.2056046094       11.6775295528       21.9393841718
  C         0.9775527737       12.8542150357       23.2937169950
  H         0.1348688420       13.9951511874       21.6741695118
  H        -0.4714010359       14.4426998176       23.1844841127
  C         1.3201191668       11.5036461764       22.6056172043
  C         0.5561820700       12.1894453734       24.5150298567
  C         2.2530134295       13.7428477725       23.2913201694
  C         1.2508634398       10.4046749579       23.4594285833
  C         1.7929915942       11.0840011666       21.3364520519
  C         0.5683956931       10.8214822241       24.6199460770
  C         0.1791787811       12.8742766033       25.6214816649
  H         2.3967084462       13.9619791826       22.2002923218
  H         2.0355777483       14.6144230975       23.8553617181
  C         3.5986795145       13.1060997392       23.8020984713
  S         1.7748076917        8.9122482916       22.7983775162
  C         2.0138758160        9.7021321820       21.2642207803
  H         2.1031415545       11.8015973957       20.6103227969
  C         0.2548347354       10.2516405780       25.7477993150
  H         0.1633980439       13.9381008132       25.6289891467
  C        -0.1501986997       12.2423041460       26.7770476119
  H         3.9554400794       12.3442633080       23.1009685544
  H         3.4236190318       12.5740385982       24.7515015048
  C         4.7640962226       14.1578195354       23.9448979523
  C         2.4751473639        9.0429868815       19.9920462351
  C        -0.1480699586       10.9014660973       26.9014209042
  H         0.2015109502        9.1570198578       25.8050768794
  C        -0.5561127159       12.6588239961       28.0213496882
  H         5.5127093158       13.7503337809       24.6253522372
  H         4.5176917174       14.9637357633       24.6694462885
  C         5.4581599164       14.7017831513       22.7170046720
  C         2.2815240977        7.6772915384       19.7046950184
  C         2.9639939008        9.8743215986       18.8818087927
  C        -0.5160101977       10.2183368621       28.1694923792
  C        -0.7487237878       11.5840206518       28.8935586749
  S        -0.6359784024       14.2058885387       28.7607896025
  H         6.1865516890       15.4814896845       23.0526952500
  H         4.7256143343       15.1473151839       21.9929988113
  C         6.2347419444       13.6140034851       21.8612775023
  N         1.8373629929        6.7365509313       20.6034888368
  C         2.6021770722        7.0889557487       18.4613632791
  C         3.3085886650        9.2712773942       17.6010186971
  H         3.1404612024       10.8804259222       18.9967686097
  C         0.6103616812        9.3264617777       28.7873780737
  C        -1.8630246508        9.4290942972       28.1316094839
  C        -1.1829269341       12.0802686553       30.1246409315
  C        -1.1280092950       13.4349186120       30.2091567419
  H         7.1966870053       14.0649363036       21.6359782890
  H         6.4116729616       12.7432249069       22.5111925523
  C         5.4072771623       13.2149265863       20.6556393299
  S         1.9924005858        5.2420427580       20.0554648807
  N         2.5215051688        5.6939457683       18.5936017353
  C         3.1576823303        7.8132342034       17.3511963336
  H         3.7352700446        9.9446112232       16.8516772139
  H         0.9707862945        8.6356108749       27.9725310523
  H         0.2446536698        8.6386943757       29.6022950028
  C         1.8289186576       10.1399971852       29.2955629205
  H        -1.6572888479        8.4241589331       27.5088009635
  H        -2.0971162287        9.0916188242       29.1550292551
  C        -3.0578160314       10.2017853251       27.6933250627
  H        -1.4606601156       11.3546190417       30.8982595392
  C        -1.3586117437       14.2290124414       31.4878086796
  H         4.4425068636       13.8121548926       20.5840606338
  H         5.0614761001       12.1766126395       20.8146064682
  C         6.1184310897       13.3453307391       19.2860154666
  C         3.4460694106        7.0948410744       16.1113581842
  H         2.0984002620       10.7254370470       28.4103116104
  H         1.6184460658       10.9691877443       30.0293477648
  C         2.9816214785        9.3767258504       29.8308110166
  H        -2.7773346100       10.7535297570       26.8264434754
  H        -3.4013250327       10.9947774683       28.4045728824
  C        -4.3462286437        9.4916309885       27.3844352688
  C        -1.3473897104       15.6191447654       31.6319447332
  C        -1.5133550487       13.5067632158       32.7347295609
  H         5.5236534898       12.7876060745       18.5648387894
  H         6.0973998120       14.4137988433       19.0281082430
  C         7.5257103845       12.7303024539       19.2922860704
  H         3.2977928234        6.0440371923       16.2797976251
  C         3.7105322385        7.4954831912       14.8264389916
  H         3.3633377207        8.9295590604       28.9443327774
  H         2.7539428322        8.6131275874       30.4632155569
  C         3.9953014000       10.3147372949       30.4959458302
  H        -4.2004552449        8.6332612191       26.7164245341
  H        -4.7930203272        8.9923632826       28.2447430091
  C        -5.3762608625       10.4343972156       26.6887025987
  N        -1.0202141665       16.5167540977       30.6029647589
  C        -1.6778847530       16.2576753793       32.8606930071
  C        -1.8720902220       14.1094913328       33.9369571543
  H        -1.6530460721       12.4191580050       32.7127893196
  H         7.7566971999       12.3498420032       18.3065817286
  H         8.1800265562       13.5564216790       19.4738983479
  H         7.6948474452       11.8778438511       19.9066602813
  S         4.0023396402        9.1287506430       14.4169549515
  C         3.7600971816        6.4472263985       13.7505684533
  H         3.9493834907       11.2646536711       29.9560244252
  H         3.6373799231       10.5362481001       31.5082829234
  C         5.3612483840        9.6586850421       30.5096907923
  H        -4.8451651330       11.2926576200       26.2200107216
  H        -5.9821395587       10.9683715286       27.4773931522
  C        -6.2431222990        9.6473831852       25.7275213737
  S        -1.1774845774       18.0406909535       31.1519582631
  N        -1.6174118496       17.6103793727       32.6575753740
  C        -1.9799140314       15.5933241789       34.0796247677
  H        -2.0197157294       13.4290702708       34.7203452826
  C         4.1075861653        8.4887798782       12.8208903543
  N         4.0976684915        7.1375540180       12.6606775311
  O         3.6162808546        5.2447605410       14.0460171864
  H         6.0951728124       10.3531929212       31.0080843793
  H         5.6215793597        9.6123805166       29.4773845444
  C         5.4619599765        8.3180350922       31.3415641712
  H        -5.7208757783        9.5114211810       24.8197923552
  H        -6.4555200492        8.6544861777       26.1649911745
  C        -7.4039055189       10.4781761982       25.3580956987
  C        -2.2597718477       16.3956289747       35.2488394502
  S         4.4005225860        9.3897303400       11.4034416752
  C         4.1536942526        6.4577714190       11.3636528623
  H         6.0993374121        8.5003296364       32.2740544990
  H         4.4891117626        8.2153290415       31.8014057280
  C         5.8532504026        7.1342429455       30.4315146118
  H        -7.1648687214       11.3775316041       24.7978897193
  H        -7.7387985397       10.9094578716       26.2753647003
  C        -8.5520717699        9.8745085744       24.6638137361
  H        -1.9036481420       17.3826645805       35.0618681799
  C        -2.8376316219       16.1360626021       36.4909563649
  H         4.9087229749        6.7527421553       10.6916237658
  H         4.3598922798        5.3883612678       11.5454281289
  C         2.8302883319        6.5008559641       10.6737002579
  H         5.1225598898        7.0929428122       29.5935724087
  H         5.7326687089        6.2072854231       30.9163986785
  C         7.3113262814        7.0147688993       29.9686873364
  H        -8.8349336920       10.3713748986       23.7354546036
  H        -8.1950185659        8.9053412291       24.3613921522
  C        -9.6662744335        9.6704736964       25.6759951117
  S        -3.5281757231       14.6692096793       36.9715449538
  C        -2.9433940579       17.2676055460       37.4810472144
  H         2.9493190158        5.6829292619        9.9620265071
  H         1.9844742983        6.3101764344       11.4019751435
  H         2.6780190827        7.3184853634        9.9733108829
  H         7.6764033615        7.6750182976       29.2247233129
  H         7.5905391723        5.9433781416       29.6861070087
  H         7.8964292538        7.1239406431       30.9185373957
  H        -9.2692254638        8.9647682396       26.3563621050
  H       -10.5423449105        9.1918049339       25.2096863094
  H       -10.0000520838       10.6064776247       26.0922551617
  C        -3.9925064603       15.4416830477       38.4384680292
  N        -3.5389899494       16.7138521977       38.5272002956
  O        -2.5853083998       18.4726003106       37.2617401550
  S        -4.6503349845       14.5331287342       39.8334800433
  C        -3.4362161096       17.4353492520       39.7488203578
  H        -3.6678393713       18.5020299652       39.6240141767
  H        -4.2281599753       17.0934351462       40.4613863556
  C        -2.0681688425       17.1710237050       40.4176566908
  H        -1.9390071582       16.1195740493       40.2110598702
  H        -1.4307119832       17.9114863978       39.9849240190
  H        -2.0710343035       17.3432466490       41.5026506590
