352
i=
  H         6.0123340370        1.9756463868       12.4474060310
  C         5.2870717489        2.7205690714       12.8439817961
  H         5.7875978551        3.7068203899       12.7236156623
  C         3.8950348880        2.7176217504       12.1977231991
  C         5.2643945084        2.6207607544       14.3448109167
  C         3.9039464239        2.7769061602       10.6708288272
  H         3.5286525570        3.6035796643       12.6125359313
  H         3.2153741112        1.9222308521       12.5437256978
  H         4.9706360920        1.6410839869       14.6372052953
  H         4.4811204621        3.3370962549       14.6543803007
  H         6.1906636210        2.9660987939       14.8358422451
  C         4.5185606253        1.6474360284       10.0282744838
  H         2.8337474386        2.8135692052       10.3924282479
  H         4.1487100037        3.7764038343       10.2631721304
  C         5.2900092530        1.9289815647        8.6873625970
  H         3.8440494402        0.8092365360        9.8606673587
  H         5.2514139328        1.1686898393       10.7136592221
  C         6.4920716861        2.9109837932        8.8487396852
  H         4.6038918340        2.3007251065        7.9113316697
  H         5.6566662093        1.0134056188        8.2290647664
  C         7.8194272710        2.1819763117        9.2920986069
  H         6.7270004714        3.3435017196        7.8696951613
  H         6.1470324822        3.6409554109        9.5399388252
  C         9.0888337208        3.1496652425        9.3570507942
  H         8.0492173790        1.3824031014        8.5643434844
  H         7.4513947721        1.7883771875       10.2231424153
  C         8.8104053558        4.3845069570       10.0308829232
  C         9.3217748650        3.7875339388        8.0359638778
  C        10.3056754072        2.4335745074       10.0240715465
  C         8.9552014615        5.5087184227        9.2356744632
  C         8.4305899430        4.7097191453       11.3770013838
  C         9.3149585207        5.1503851380        7.9294416928
  C         9.6493195103        3.1630593697        6.8057955705
  H         9.9541427262        1.9417672391       10.9433622162
  H        10.5475273491        1.6880425995        9.2480633773
  C        11.5967869796        3.2986430856       10.2199957088
  S         8.7224270266        6.9956923442       10.0729427506
  C         8.2503653064        6.0900620331       11.4646299619
  H         8.3373051570        3.9698937774       12.1481419303
  C         9.6242196579        5.8277998909        6.7746752188
  H         9.7803369975        2.0936508361        6.9410408691
  C        10.1044334902        3.7892944563        5.6799933647
  H        11.3062874687        4.2677864703       10.5207635961
  H        12.2125846993        3.3813895208        9.3515498061
  C        12.5610759119        2.7280078359       11.2012654516
  C         7.8969743592        6.7490336832       12.7461438607
  C        10.0176283749        5.2058528014        5.6024680265
  H         9.6720295306        6.8895129409        6.6525789387
  C        10.6209097615        3.3751444326        4.4577286940
  H        13.5508605711        3.1693388462       11.2249263277
  H        12.6972465779        1.6661354519       10.9665767535
  C        12.1873657072        2.9659274470       12.6613219416
  C         7.8606191224        8.1366532663       12.9895374037
  C         7.4960783197        5.8915568083       13.9029443264
  C        10.5119199576        5.8518448259        4.3455491825
  C        10.9064403646        4.4951845938        3.7254863898
  S        11.0995809621        1.8931018712        3.7313164057
  H        12.4505261820        3.9793489716       12.9763588583
  H        11.1339574749        2.8203216760       12.7836232071
  C        12.8885709516        2.0340079867       13.5955883273
  N         8.0724237260        9.1899893973       12.0777777579
  C         7.5803211920        8.6392157254       14.2645725520
  C         7.0065214049        6.3851563180       15.0957362899
  H         7.3848402058        4.8090696293       13.7735183400
  C        11.6977982961        6.8932781695        4.5706074358
  C         9.3958857215        6.5098307059        3.6031788815
  C        11.5390189616        4.0629525795        2.5391750134
  C        11.5793266251        2.7411399822        2.3457322383
  H        13.7360900223        1.6267767074       13.1160439039
  H        12.2261193609        1.1319474318       13.5901879523
  C        13.1413631465        2.6236085742       15.0409375397
  S         8.2250766376       10.6206263459       12.9411588073
  N         7.7819582454        9.9801508861       14.3885352558
  C         7.1478375216        7.8391617453       15.3372910884
  H         6.6722632719        5.7272789834       15.9309018100
  H        11.4056776832        7.8215415436        5.0613956764
  H        12.1332024850        7.1554643804        3.6209770993
  C        12.8403612167        6.2188215760        5.3371421925
  H         8.7700943221        7.0004441432        4.3585018777
  H         9.7674389784        7.2938241204        2.8933567746
  C         8.4013849375        5.6446496402        2.8711296439
  H        11.8634975267        4.7432228039        1.7563002256
  C        11.8860341565        2.0242300174        1.0964333133
  H        14.1418977699        3.1152516851       15.0238283116
  H        12.3771893703        3.3773575600       15.2837189174
  C        13.1282407581        1.5518190326       16.1349476295
  C         6.8248955919        8.4435429963       16.6094750605
  H        12.6186658299        6.1305289067        6.4288470060
  H        12.9646721605        5.1506695700        4.9551074937
  C        14.2028557764        6.9770867955        5.3078093818
  H         7.9564666269        4.8519747157        3.4657187471
  H         8.9304530514        5.1877055940        2.0211126570
  C         7.4401131445        6.5426371862        2.2891963693
  C        12.0178038976        0.5797564008        0.9637725744
  C        12.1903431590        2.7759458862       -0.1353755398
  H        14.2006716264        1.4240215666       16.3091710121
  H        12.6754884753        0.6137821869       15.8878364949
  C        12.4081956534        1.9854684417       17.4187608863
  H         6.6664402007        9.4568175942       16.5502903623
  C         6.4509254317        7.9084141953       17.8316871376
  H        14.0527313186        7.8128827701        5.9179335974
  H        14.4936389005        7.2552124841        4.2887355633
  C        15.3541009562        6.1724856829        5.8804054368
  H         7.0090640957        7.2670459558        2.9840323709
  H         7.9456823784        7.2558634077        1.5850317702
  C         6.3073202472        5.9464941437        1.4788284490
  N        11.8230803213       -0.3659504543        1.9626683301
  C        12.3040589776        0.0043974189       -0.2393905655
  C        12.4282030613        2.1510382070       -1.3836228767
  H        12.1351563481        3.8498388646       -0.1197279383
  H        12.8559314662        1.4595937295       18.2269895103
  H        11.3570107989        1.6715396502       17.4758607881
  H        12.4916394964        3.0660797286       17.6937934544
  S         6.4670299337        6.3337082995       18.4180432312
  C         6.4593512436        8.9355217696       18.9378267610
  H        15.7962384217        6.6539450445        6.7364146398
  H        14.8962337734        5.2564429536        6.1825880417
  C        16.5352449573        5.9756534104        4.9553396038
  H         6.0570984209        4.8986342447        1.6841116008
  H         6.6618037535        5.7871417210        0.4412014699
  C         5.0225119142        6.8468264403        1.3544997634
  S        11.9064850804       -1.8647590341        1.3437067862
  N        12.2436100797       -1.3983626840       -0.2229258094
  C        12.4544242946        0.6767944145       -1.4469980839
  H        12.5780358298        2.6692355686       -2.2573321420
  C         6.0140285712        7.0071594592       19.9660932610
  N         6.1675275637        8.3422342128       20.0851369339
  O         6.4647623353       10.1258203922       18.7046935393
  H        16.1226752282        5.3757691241        4.1181668429
  H        16.7688532895        6.9081776304        4.4814457598
  C        17.7068268067        5.4002122937        5.7254889636
  H         4.1519851920        6.3379004837        0.9835611547
  H         4.9106177862        7.0669500655        2.4406812841
  C         5.1222027518        8.2417534989        0.6586393080
  C        12.5521331576       -0.0178919535       -2.6861435407
  S         5.8393921684        6.1151740784       21.4808223695
  C         6.2475926636        9.0387093835       21.3630315182
  H        17.2590497541        4.8992061976        6.5798896528
  H        18.3159282843        4.5582836247        5.2330809513
  C        18.7039285079        6.4803644939        6.1188057038
  H         5.1659535841        8.0398673562       -0.4303740768
  H         6.0236980430        8.7080475632        1.0101463785
  C         4.0214732540        9.2684602137        1.0525038168
  H        12.0191847013       -0.9192888185       -2.6472068955
  C        13.1096644461        0.1947196015       -3.9256097947
  H         5.3727077137        8.7813783274       22.0442746388
  H         6.0237149209       10.0993818460       21.1711445720
  C         7.5976368548        8.8494295145       22.0617174126
  H        18.1363751437        7.2550192854        6.5455605566
  H        19.3524094410        6.9462867764        5.3472271768
  C        19.6533817075        5.9405419747        7.1468099584
  H         4.3386106706       10.3040218324        0.7308790336
  H         3.1412203746        8.8694973828        0.5092799445
  C         3.7481002678        9.4775917197        2.5653132114
  S        13.8330972872        1.6496766850       -4.4349405066
  C        13.1369981904       -0.9654381291       -4.8322571083
  H         7.7896377036        7.9991360028       22.6887236297
  H         7.6690771956        9.6974069557       22.6979843067
  H         8.3962326027        9.0006424635       21.3320230733
  H        19.2357070883        5.8856432260        8.1188743758
  H        20.0657783045        5.0581275304        6.6323911440
  H        20.6045236511        6.5799826597        7.1603159976
  H         4.5594766705        9.2888686815        3.1799582392
  H         3.4013146943       10.4670500408        2.7539915812
  H         2.8888084915        8.9452020765        2.9394703841
  C        14.0372722841        0.8025754056       -5.9897172082
  N        13.8102722156       -0.5461886736       -5.9328564956
  O        12.8551564223       -2.1318781193       -4.5618784712
  S        14.9067390801        1.4614081505       -7.3805693010
  C        14.0339826117       -1.4948658655       -7.0184104446
  H        14.2341155904       -2.5329577325       -6.6563673876
  H        14.9493081220       -1.2289630149       -7.5592093929
  C        12.8670658260       -1.4961311932       -7.9878733630
  H        12.5308963757       -2.5084261504       -8.2126679311
  H        13.1596558293       -1.0198785262       -8.9776509163
  H        12.0626743562       -0.8426382214       -7.7266040867
  H        -1.7816628051       15.4449033020       16.0743736822
  C        -2.3749132150       14.6412886891       16.4742836119
  H        -3.1853976104       15.1506855917       16.8495687025
  C        -1.6566713228       14.0984048786       17.6441977215
  C        -2.8013693478       13.5538672361       15.4572196991
  C        -2.4940095037       13.5975384313       18.8503330464
  H        -0.8340693774       13.3067706631       17.3166891894
  H        -1.0315248104       14.9310444202       18.0818207881
  H        -3.4813825237       12.8691370757       16.0148533886
  H        -3.2800290612       14.0912157297       14.6145664026
  H        -2.0128082360       12.8866444769       15.1212238829
  C        -1.4721036403       13.0885386703       19.9235295554
  H        -3.0630316547       12.7148223751       18.5989236394
  H        -3.1463103957       14.3470695838       19.1896485987
  C        -2.0121473695       13.1640034349       21.3633196434
  H        -1.1678728238       12.0712354205       19.6811920912
  H        -0.5524194909       13.6864002148       19.8329892840
  C        -0.9319821640       12.6876487935       22.3885329609
  H        -3.0072385840       12.5711779763       21.4337395410
  H        -2.1586476389       14.1816385245       21.7528497825
  C         0.2689089737       13.5792147916       22.5399972302
  H        -1.3657759184       12.5971870289       23.3771702909
  H        -0.6556575703       11.6613929584       22.1823358896
  C         1.5519096534       12.8814258812       23.1476735803
  H         0.3905302445       13.9700148678       21.5444458801
  H         0.0370089693       14.4520838120       23.1242433633
  C         1.9121156067       11.6545331826       22.4142994238
  C         1.2100310235       12.2174704384       24.4393842981
  C         2.7577095897       13.8485963723       23.2291511154
  C         1.8197295094       10.5581289345       23.2124408262
  C         2.1465996247       11.2699433912       21.0970080046
  C         1.3810865961       10.8853856368       24.5155294175
  C         0.6089812829       12.8213383820       25.5947951357
  H         2.8309998693       14.3463223951       22.2640605841
  H         2.6630779813       14.6255792266       23.9444381308
  C         4.1023439654       13.1536620040       23.4843578868
  S         2.1889913927        9.0482872012       22.4974773868
  C         2.3799941596        9.9200504679       21.0196419447
  H         2.0771647196       12.0163324293       20.3076016273
  C         1.0766238441       10.2563374197       25.6441892563
  H         0.2680588298       13.8094685534       25.5231609439
  C         0.2691682138       12.1585166571       26.7197026280
  H         4.3857192934       12.3878626137       22.7119670509
  H         3.9352894252       12.5082290779       24.2825027447
  C         5.2553801668       14.0386253668       23.9080211002
  C         2.7976967935        9.2549886491       19.6987508465
  C         0.5415949500       10.8288770170       26.8168687106
  H         1.1566793161        9.1815953109       25.7173953651
  C        -0.1947252963       12.4667411773       27.9522034474
  H         5.9518742363       13.5016597006       24.5279608356
  H         5.0568792958       14.9130220177       24.5189057407
  C         5.8993900200       14.6226607303       22.6938080010
  C         2.8407400149        7.8858635485       19.3996391433
  C         3.1258264377       10.0946531834       18.5812867586
  C         0.0012419966        9.9627297776       27.9931169477
  C        -0.4022655943       11.3111458682       28.6595946931
  S        -0.6252163310       13.8955823758       28.6980729509
  H         6.3584051869       15.5533909227       23.0403247865
  H         5.2287187820       15.0608766008       21.9888939899
  C         6.9439493705       13.6565407217       21.9811716579
  N         2.5127175089        6.9045007758       20.3279267779
  C         3.0908389261        7.3693741587       18.1199485115
  C         3.3577221548        9.6684385010       17.2716483360
  H         3.2493447526       11.1358145943       18.6352398021
  C         1.1009836377        9.2456314679       28.7399749753
  C        -1.2375182406        9.1680387460       27.6656858700
  C        -0.9594487761       11.6246011702       29.9285971113
  C        -1.0272792173       12.9436628792       30.1139076892
  H         7.8149510541       14.2114265073       21.9337627990
  H         7.2513698865       12.7786694504       22.5489432559
  C         6.5280626202       13.1287087677       20.6011648246
  S         2.6091644441        5.4423324332       19.6468135118
  N         2.9182026681        5.9884112966       18.1255907891
  C         3.3501430870        8.1942714020       17.0271679213
  H         3.5732275755       10.3461336944       16.4733589865
  H         1.3888228075        8.4184900700       28.0860440480
  H         0.7208346540        8.8534789932       29.6545875731
  C         2.3497871087       10.0685876420       29.0472433628
  H        -1.0940459726        8.4414696081       26.8515122045
  H        -1.2807764565        8.5124282290       28.5324160894
  C        -2.5149019866        9.9514219747       27.4407612329
  H        -1.2367114037       10.8134674673       30.5503154878
  C        -1.4145875391       13.5956576921       31.3804005571
  H         5.4389584907       13.0067907169       20.6543942525
  H         7.0470212928       12.2378668617       20.4548197857
  C         6.9957740565       14.1636711976       19.5683751455
  C         3.7440657152        7.5700024075       15.8021480438
  H         2.8650028627       10.3065096542       28.1505759260
  H         2.1775514529       11.0048616983       29.5415612293
  C         3.4603678696        9.3416728315       29.8351620317
  H        -2.2512664459       10.5161647644       26.5508030044
  H        -2.8476314246       10.5472160971       28.2212888523
  C        -3.7382020112        9.1117777133       27.0984924198
  C        -1.4027857002       14.9627675574       31.6941094996
  C        -1.5966061581       12.7329388302       32.5672597421
  H         6.1368232936       14.8844974098       19.7342196342
  H         7.9690901365       14.6113599385       19.8678182698
  C         7.0527245453       13.7513527344       18.1143849162
  H         3.7615464053        6.5178763260       15.8057255953
  C         3.9921462539        8.0797933635       14.5012775333
  H         3.6614156127        8.3765538296       29.4548582608
  H         3.0766583333        9.2420581415       30.9010933027
  C         4.8758549126        9.9910551502       29.8815224748
  H        -3.6361636165        8.6228823650       26.1548231739
  H        -3.9489770686        8.3566098401       27.8891295453
  C        -4.9960172205       10.0297074870       26.9684554255
  N        -1.2470540383       15.9444875800       30.7496264611
  C        -1.6478886553       15.4807911611       32.9867808564
  C        -1.8180803548       13.2214543383       33.7833913478
  H        -1.4891231960       11.6957277907       32.4132772194
  H         6.1908432906       13.0678870022       17.8661658301
  H         7.1155880743       14.5994707589       17.4376319849
  H         8.0055736760       13.2057253860       17.9647818988
  S         4.0701106704        9.7362222328       14.1048665786
  C         4.1763572664        7.1255392818       13.4881803220
  H         5.1068993930       10.7024163145       29.0858854824
  H         4.9801338820       10.4608228010       30.8390729062
  C         6.0362132749        8.9343064929       29.7355610822
  H        -4.8984183149       10.8587031008       27.6572076584
  H        -5.8163451289        9.4287451570       27.3700885658
  C        -5.3236512839       10.4613244364       25.5533033389
  S        -1.2045345272       17.3999849284       31.4915507070
  N        -1.5747450075       16.8762064392       33.0074354073
  C        -1.9456855333       14.6754885116       34.0698021593
  H        -1.9234485629       12.5167129056       34.6118587462
  C         4.5181019208        9.1109988441       12.4944979384
  N         4.5605184606        7.7048312650       12.3352107354
  O         4.0076741824        5.9161324219       13.6522980468
  H         7.0640312791        9.3993356415       29.7172205687
  H         5.8926565303        8.3596990280       28.7897690856
  C         6.2234601349        8.0741741083       30.8948351248
  H        -4.5253398835       11.1089408598       25.3090613763
  H        -5.2295629209        9.5877315671       24.9140946560
  C        -6.7274025786       11.1657802830       25.3890595425
  C        -2.1791772466       15.3579206279       35.3011738431
  S         4.8225688762       10.0607765106       11.1110212929
  C         4.5387629524        6.9761438787       11.1067311827
  H         6.6903614935        8.5277211712       31.7409965216
  H         5.2431562586        7.7643912904       31.1069808023
  C         7.1322741087        6.8375208889       30.5482753964
  H        -6.6570669523       11.6232173367       24.4441770426
  H        -6.9285026185       11.8401525017       26.2102997010
  C        -7.7995874873       10.0993846256       25.3869097045
  H        -1.7936572452       16.3024523429       35.4981391891
  C        -2.8449328025       15.0234747435       36.4569196618
  H         5.0503949733        7.5140109260       10.3700267300
  H         5.1678424124        6.0754690033       11.2361068060
  C         3.1191338093        6.7181691398       10.6880322624
  H         8.2295480636        7.0197387477       30.4166030529
  H         6.9012872153        6.4614006156       29.5478600740
  C         7.0744754162        5.8472348156       31.7059521252
  H        -7.3796726470        9.2264305001       24.9021318556
  H        -7.9472607701        9.8539501201       26.4308698168
  C        -9.1251039367       10.3470353544       24.7337887684
  S        -3.5422313776       13.4187980528       36.8572254014
  C        -3.0186985302       16.0863585490       37.4882074128
  H         2.4293369204        6.3683634773       11.4160908451
  H         2.6347535139        7.6523954270       10.4822639421
  H         2.9847009056        6.0104373002        9.8690772227
  H         7.4003506041        6.2525862198       32.6789536745
  H         7.6755167389        4.9625461258       31.3422683625
  H         6.0502104018        5.4910289487       31.7563504505
  H        -9.0414066057       10.2837050477       23.6747595391
  H        -9.6373465498       11.2722400948       25.1019441632
  H        -9.8161565651        9.5473521403       24.9745608385
  C        -3.8150784438       14.1347277226       38.4837690835
  N        -3.6478579541       15.4656274677       38.5164488723
  O        -2.7011879166       17.2468163254       37.4088918285
  S        -4.7670583382       13.4476592467       39.6951026124
  C        -3.9886071871       16.2741495047       39.6333974396
  H        -4.0938538299       17.3328299494       39.3618637279
  H        -5.0114627231       16.0644478287       39.9717810931
  C        -2.8960219221       16.4334832523       40.6994726332
  H        -2.2836579310       17.3277126952       40.6093260281
  H        -3.3038336089       16.4750864555       41.7449063576
  H        -2.3104574740       15.5699341932       40.6338305811
