352
i=
  H         5.1808045248        1.9857194925       12.8093775129
  C         4.3261577674        2.5849186509       13.0416394372
  H         4.6855842968        3.6043241466       13.2348657873
  C         3.2192244052        2.6119880223       11.8836421237
  C         3.8171140719        2.0629610204       14.3144297535
  C         3.8170370069        2.8531392442       10.5451791374
  H         2.4040341682        3.3504678034       12.0092789201
  H         2.7517536276        1.6458928578       11.7249188954
  H         3.3545430173        1.0500153974       14.1190146903
  H         3.1634297757        2.8538094872       14.5438891031
  H         4.6341813924        1.9026584761       15.0166379787
  C         4.5645540994        1.5675939811       10.1042546685
  H         2.9821134695        2.9568765777        9.9169844864
  H         4.4064186581        3.7631821962       10.4618580584
  C         5.0809240164        1.5916594831        8.6545105613
  H         3.9565565192        0.6784620816       10.1908946982
  H         5.4738678564        1.3514823378       10.7122372900
  C         6.4374357099        2.3617148068        8.6877021311
  H         4.4179988280        1.9646347163        7.8842337070
  H         5.2840923100        0.5731149754        8.3888155201
  C         7.7614372475        1.6221946277        9.0536267557
  H         6.6860618099        2.7615739834        7.6745298844
  H         6.3445523552        3.2262994901        9.3680929759
  C         8.9968823507        2.6057902542        9.2690215272
  H         7.9610160959        0.7904502251        8.3297584315
  H         7.4928809093        1.0104052116        9.9315356872
  C         8.6914200501        3.9341829837        9.9401445897
  C         9.4071349495        3.3545180895        8.0495749463
  C        10.1848688715        1.8108959574        9.9187208847
  C         8.8928412731        5.0827121465        9.1843151447
  C         8.1888383009        4.2656805300       11.2596589324
  C         9.4021104286        4.7060062636        7.9911467318
  C         9.8607265459        2.7808524713        6.8894625528
  H         9.8715704201        1.3766855502       10.8622874480
  H        10.3636579546        1.0065863156        9.2551990250
  C        11.4710544585        2.5631293219       10.2535101952
  S         8.4606010413        6.5686130590        9.9960515925
  C         8.0620559498        5.6445842358       11.4228411890
  H         7.9574729847        3.4263350394       11.9076464222
  C         9.8044187151        5.3732373408        6.8302927021
  H         9.9854166770        1.6939881082        6.8635337940
  C        10.3288169486        3.3912720809        5.7557506611
  H        11.2090807917        3.5666213495       10.6710916666
  H        11.9052405208        2.7738635332        9.2776243875
  C        12.4617994309        1.9037861900       11.1559795717
  C         7.6192661042        6.3726061593       12.7131304025
  C        10.2949847257        4.7665185891        5.6540618097
  H         9.7636211750        6.4611965767        6.8816046178
  C        10.7975281052        3.0160989092        4.5019173039
  H        13.4255279510        2.4212141421       11.1150207559
  H        12.7637725303        0.8880041922       10.8584428112
  C        12.0775728751        1.9051058125       12.6474154660
  C         7.6477242240        7.7397033615       12.9550584988
  C         7.2706600828        5.4346363359       13.8448801237
  C        10.8476415240        5.4342936848        4.4562562270
  C        11.1944715664        4.1311611271        3.7360364683
  S        11.0569455977        1.5464125468        3.7313942926
  H        11.5389911410        2.7926599169       12.9449771836
  H        11.5080242323        0.9478651445       12.8369617003
  C        13.3725706970        1.8656975550       13.5270194124
  N         7.9373369878        8.7582583748       12.0254161067
  C         7.3283535042        8.2491445550       14.2332666012
  C         6.9791216012        5.9155980753       15.0786930689
  H         7.3032133546        4.3498535712       13.7719074178
  C        12.1042429846        6.2834075223        4.6892438116
  C         9.7751949911        6.2861084098        3.6983334122
  C        11.6872239979        3.7095002269        2.4567353142
  C        11.5799031421        2.3334794338        2.3263018401
  H        13.6840199680        2.9471683308       13.7145136878
  H        14.2735663000        1.3931698209       13.0849264210
  C        13.2046209407        1.1362139833       14.9078432401
  S         7.8544314305       10.1951423149       12.7751946231
  N         7.4504606094        9.6286033189       14.2080242399
  C         7.0135478587        7.4103862677       15.3248290699
  H         6.9409223510        5.2467454313       15.9275898430
  H        11.9134708893        6.9547175398        5.5211819293
  H        12.3042077043        6.9542129221        3.8612335274
  C        13.4075595384        5.4991982047        5.1341906352
  H         9.5399162133        7.2410969877        4.2332695069
  H        10.2582492677        6.7275404312        2.8285482983
  C         8.5490340753        5.4989924858        3.2865846726
  H        11.8694916089        4.4529477971        1.6795664451
  C        11.7615596578        1.6211983451        1.0586692204
  H        12.5717714330        0.2658630310       14.7920091482
  H        14.0593308424        0.7150365847       15.3775309315
  C        12.5290260778        2.0461121908       15.9434285595
  C         6.8186807826        7.9795326472       16.6177080232
  H        13.0674919027        5.0164871945        5.9640270332
  H        13.8480808043        4.8266704984        4.3637077744
  C        14.5525769279        6.3923074602        5.4101071361
  H         8.2077432658        4.9359127665        4.1076674563
  H         8.7161321791        4.8889186841        2.3911731593
  C         7.4202903750        6.4146699391        2.7323904257
  C        11.6685372941        0.2162657570        0.8552145295
  C        12.1451971943        2.3840908611       -0.1845235453
  H        11.5201586049        2.3469026833       15.5764920969
  H        13.1448898996        2.9334865990       16.1238212322
  C        12.3996493165        1.4315667049       17.3737332793
  H         6.9583093151        8.9868376520       16.6122103064
  C         6.4891734788        7.5746727221       17.8479983348
  H        14.2594139792        7.1451708738        6.1831906341
  H        14.6989938067        6.9701617667        4.5150870030
  C        15.8225661209        5.5843760999        5.6004107907
  H         7.2290213128        7.1755375461        3.5487899940
  H         7.8698487127        6.9834788212        1.8983028222
  C         6.0808357721        5.6775914035        2.3773391593
  N        11.4142489834       -0.7652806695        1.8194717046
  C        11.9542725041       -0.3923710934       -0.3672532001
  C        12.2942363556        1.7344983366       -1.4811521904
  H        12.1645925028        3.4910380437       -0.1072535598
  H        11.4772444764        0.8962252718       17.6289777569
  H        12.4292537958        2.2316495999       18.0184624345
  H        13.2013892226        0.7595434017       17.5936468190
  S         6.1002311518        5.9352534350       18.3249986312
  C         6.5647488051        8.5899939897       18.9283945548
  H        16.0164622799        4.8201802650        4.8981855312
  H        16.5281340180        6.3668837562        5.3763563785
  C        16.0576127968        5.1723771161        7.0501973598
  H         5.7728630683        5.1761103535        3.2668150648
  H         6.2653900348        4.7911272664        1.7684798281
  C         5.0963537412        6.6902641365        1.7783493356
  S        11.5289991993       -2.2313485059        1.1430990678
  N        12.0343406203       -1.8125745625       -0.2995832843
  C        12.3050826857        0.2730639124       -1.5399341566
  H        12.3405411451        2.3789196236       -2.3757190183
  C         5.8714364906        6.6403652091       19.9393810638
  N         6.0958116136        7.9717573778       20.0111091757
  O         6.8116789665        9.7909920226       18.7417983109
  H        16.0838985998        6.1133569923        7.5212677078
  H        15.2756468624        4.6691475560        7.4473117492
  C        17.4001461418        4.3387899038        7.2795650938
  H         5.6704866966        7.1830948499        0.9182873091
  H         4.2584838811        6.2329615005        1.2556424798
  C         4.6565368270        7.8588756774        2.7215027075
  C        12.6664364155       -0.4224652386       -2.7238414587
  S         5.4226857566        5.6980723824       21.3528876184
  C         5.9549824614        8.7371996397       21.1764880614
  H        17.2117258982        3.6450592520        8.1475240323
  H        17.5325373477        3.7194633100        6.3508003602
  C        18.6268392992        5.2087693851        7.4638836878
  H         5.5045903511        8.5377255530        2.9228389562
  H         4.4827641237        7.6106665843        3.8211017845
  C         3.4733692123        8.8031831052        2.2996632474
  H        12.4067323313       -1.3927650622       -2.6682576436
  C        13.0733685264       -0.0937488762       -4.0037324006
  H         5.0994629278        8.4342158292       21.7683471762
  H         5.7632898577        9.7823378131       20.9706274807
  C         7.2988793272        8.7744681017       21.8820512164
  H        19.1494404644        4.8928394914        8.3107009831
  H        18.2146289828        6.1436263544        7.8128481791
  C        19.5543086262        5.3115782218        6.2506680983
  H         3.0213896552        8.4308250629        1.3772669651
  H         2.6491510954        8.7735261213        3.0587889185
  C         3.8891796802       10.2521705944        1.9844627607
  S        13.6802156066        1.4401266486       -4.5970862787
  C        13.1310612843       -1.1988575305       -4.9918624119
  H         7.1185497819        9.0608408855       22.8816874770
  H         8.0012474959        9.4289258797       21.3653239517
  H         7.7149617711        7.8218663197       21.9944614029
  H        20.4498657625        4.6401725007        6.1866094612
  H        18.9180917883        5.1530410369        5.3763479540
  H        19.9237512788        6.3772041906        6.0768497429
  H         4.4961585681       10.6895338669        2.6989527480
  H         4.4469583618       10.2182977807        1.0568261206
  H         3.0809719229       10.9144842292        1.7648080159
  C        13.8979245609        0.5932436378       -6.0934800621
  N        13.7460462721       -0.7283192041       -6.0935342640
  O        12.7582408204       -2.3663649405       -4.7725580152
  S        14.9432572921        1.3172211244       -7.2770105289
  C        14.0462471875       -1.6116895371       -7.1964765517
  H        14.1440001073       -2.6512361380       -6.9420868160
  H        15.0313070640       -1.3684288871       -7.6058969897
  C        12.8115412219       -1.5251811106       -8.1309740065
  H        12.7963827811       -0.6294047709       -8.6911691405
  H        11.8009092371       -1.7816459719       -7.7060970995
  H        12.8857454625       -2.3000509501       -8.8672921845
  H        -3.1696190681       15.3796699588       16.9904346432
  C        -2.6386373496       14.3873694271       16.9917358736
  H        -3.3643523055       13.6866873697       17.4091972563
  C        -1.3760368945       14.4080370600       17.8382032488
  C        -2.4351493599       13.8881110142       15.5934660554
  C        -1.5667288861       14.4897039444       19.3598590615
  H        -0.5826165142       13.6541022153       17.6648735818
  H        -0.9440559626       15.3740006736       17.4208858172
  H        -2.9424155275       12.9201192256       15.4933378996
  H        -2.8782959651       14.4620767363       14.8262492390
  H        -1.4046131764       13.8652027973       15.3273874353
  C        -1.5839686383       13.1000813281       19.9252152539
  H        -2.4696565839       14.9721088007       19.5767403222
  H        -0.8242259954       15.1166803048       19.8347579937
  C        -2.2186766407       12.9745033150       21.2458135934
  H        -2.3109137669       12.5118787922       19.2857143057
  H        -0.6054502719       12.7634938709       19.7748419520
  C        -1.2279302780       12.6164841996       22.4044206485
  H        -2.8604388951       12.1437604083       21.2842174623
  H        -2.8487491383       13.7964142068       21.5011208928
  C        -0.0240720409       13.6033154387       22.5940552054
  H        -1.7831383812       12.5746871911       23.3476601228
  H        -0.8181235438       11.6488137959       22.2555617533
  C         1.1786987807       12.9968353122       23.3525722221
  H         0.3254961037       13.9497622381       21.6479547556
  H        -0.4054635709       14.4404423866       23.1827956329
  C         1.5601749348       11.6381105447       22.7653864597
  C         0.7705935864       12.3614995111       24.6379579032
  C         2.3803173362       13.8943939431       23.4031584684
  C         1.3898861481       10.5751844998       23.6181503431
  C         1.8948069638       11.2745853603       21.4426890487
  C         0.8102292067       11.0433401563       24.8093537494
  C         0.2030562617       13.0299839485       25.7042272586
  H         2.5673965047       14.1117218263       22.2981230807
  H         2.1342648885       14.8398001374       24.0179434794
  C         3.5173384409       13.1560615438       24.1548640582
  S         1.7314879337        9.0168861136       22.8491388578
  C         2.1711990567        9.9210924792       21.3466269316
  H         1.9562252528       12.0786221863       20.6828202950
  C         0.2967995735       10.4492045368       25.9271053426
  H         0.1322457181       14.0620108953       25.6657175457
  C        -0.1771588513       12.4642748506       26.8990123529
  H         3.7622902360       12.0906842024       24.0070452459
  H         3.1740217246       13.1196859913       25.1716402260
  C         4.8907803086       13.9651644984       24.1322196182
  C         2.6907502797        9.2059626782       20.1054403298
  C        -0.2254493262       11.1172275513       27.0226832775
  H         0.1545875678        9.3416092527       25.9066191980
  C        -0.5983626151       12.9063588295       28.1589004012
  H         5.5305795882       13.6169995269       24.9127778796
  H         4.7463520617       15.0251070666       24.3238306990
  C         5.5807573250       13.9005880854       22.7566780129
  C         2.5760110381        7.8223295383       19.8652613612
  C         3.0885244414       10.1125037785       19.0513141304
  C        -0.6746327748       10.4399321240       28.2523246495
  C        -0.9282364522       11.7950898705       28.9412460141
  S        -0.8636366556       14.4262325621       28.8473563455
  H         6.3319747362       14.6937863054       22.7032338012
  H         4.7971498200       14.1419559363       22.1133989063
  C         6.2633047485       12.6156477964       22.3673835706
  N         2.1576739833        6.8444144131       20.7296425185
  C         2.7628484040        7.2940337182       18.6066749205
  C         3.3414122530        9.5381055534       17.8071670126
  H         3.0833759754       11.2119905795       19.1207845843
  C         0.4396801298        9.5524199374       28.8899380876
  C        -2.0765437375        9.6269719804       28.1112256326
  C        -1.1974406141       12.1734098627       30.2740264740
  C        -1.2791134146       13.5655279950       30.3478083580
  H         7.2037393754       12.6022837692       22.8867135238
  H         5.5878919001       11.7595403165       22.6815991319
  C         6.3947820140       12.3983084242       20.8670675953
  S         2.1197749890        5.3722797174       20.0378098393
  N         2.4654693728        5.9303613608       18.5520602105
  C         3.1912496270        8.0818063819       17.5460870292
  H         3.6912566538       10.1446816472       17.0524934932
  H         0.7153029808        8.8863019472       28.1414299764
  H         0.0660458188        8.9682292951       29.7074417234
  C         1.6599431746       10.2786938610       29.4515194855
  H        -2.0561921896        8.7724822300       27.3998482618
  H        -2.4273233242        9.1812276808       29.0356246405
  C        -3.2225989805       10.5258425601       27.5007776527
  H        -1.5055846514       11.4598465270       30.9927747740
  C        -1.5884175554       14.3090019957       31.6433013432
  H         5.4752184336       11.8521667530       20.4282908073
  H         7.1711392552       11.6645193103       20.6683599122
  C         6.7986094140       13.5942672140       19.9831867509
  C         3.3430869583        7.4167408761       16.3450632433
  H         2.0941599684       10.8311147919       28.5532340607
  H         1.2665124542       11.0789819134       30.0946234330
  C         2.5302727040        9.3611046853       30.2358347489
  H        -2.8548757058       11.0784067327       26.5907385298
  H        -3.3904430994       11.3313021488       28.1618760928
  C        -4.5080823751        9.7471906181       27.3031510561
  C        -1.6815658436       15.7189079824       31.8136092841
  C        -1.7591113419       13.5379450979       32.9533348115
  H         5.8278393210       14.0284470660       19.7334453363
  H         7.3613202567       14.2792858497       20.5397211702
  C         7.5189299103       13.0059935992       18.7653038065
  H         3.1075650885        6.4042788965       16.4310199981
  C         3.7191134504        7.7906858242       15.0286395019
  H         2.6103959278        8.5854837420       29.5164023030
  H         2.1549663537        8.8890902477       31.1413074561
  C         3.9747577742        9.9100671472       30.4740591581
  H        -4.3066369986        8.9372810000       26.6414339886
  H        -4.7985156396        9.4163833358       28.3102669201
  C        -5.6360345126       10.6365374693       26.8854222520
  N        -1.4676835431       16.6873548026       30.8490221240
  C        -2.0262884585       16.3132508243       33.0587604231
  C        -2.1339712367       14.1247210410       34.1225274574
  H        -1.7188301250       12.4183543517       32.9325041999
  H         8.0683000013       13.7701948537       18.2521056452
  H         8.3549087139       12.3597667868       19.0087939167
  H         6.8187331122       12.6124678400       18.0578441978
  S         4.3648157798        9.4145448278       14.5222161507
  C         3.6265190504        6.8142668363       13.8930182386
  H         4.1608496746       10.7604149575       29.8601872120
  H         4.1212410176       10.1363758821       31.5441675759
  C         5.0691974092        8.9025740701       30.0747235555
  H        -5.1453118918       11.2546169440       26.1203957956
  H        -6.1254340480       11.2408681992       27.7380593846
  C        -6.7151033838        9.7743212323       26.2879443280
  S        -1.3629525778       18.1685541316       31.5604180868
  N        -1.8678310516       17.7122436673       33.0442773000
  C        -2.2390203082       15.6180535706       34.2801158996
  H        -2.0439321407       13.4748137847       34.9720093959
  C         4.2746694014        8.7254886504       12.8647035944
  N         4.0131918147        7.3845213838       12.7370244044
  O         3.1981322201        5.6713400999       14.0210378319
  H         6.0084885638        9.3859154275       29.9656305936
  H         4.8368188345        8.4292720373       29.1143637665
  C         5.2751405753        7.8448764697       31.2066461992
  H        -6.2546731797        9.0918157183       25.4963823227
  H        -7.0814381419        9.1109137069       27.1015475804
  C        -7.6973968900       10.6853029191       25.5307686828
  C        -2.4502877559       16.3311029335       35.4627152078
  S         4.7066897210        9.6183024929       11.3790008816
  C         3.9776329519        6.7417863685       11.4411586509
  H         5.9081293650        8.2492424131       31.9833660829
  H         4.3168346922        7.7015934154       31.6620600218
  C         5.8356963777        6.5495598288       30.6572345659
  H        -7.0688747570       11.1372775094       24.7898028716
  H        -8.1474051445       11.4260471710       26.1932933296
  C        -8.7988943792        9.8402749248       24.8310907176
  H        -2.3102183444       17.3731051356       35.3842991434
  C        -3.1661131187       15.9583015311       36.5355836145
  H         4.7393892130        7.1382583806       10.7602649674
  H         4.2485012190        5.6253529946       11.5544540546
  C         2.6956758921        6.8302791170       10.6828181410
  H         6.8335769894        6.7967522284       30.2942905838
  H         5.1918715505        6.2727905672       29.8188762255
  C         5.7112314018        5.4159849968       31.6527690323
  H        -9.1561352177       10.2921717046       23.9098755152
  H        -8.4029974965        8.8584647551       24.4549543107
  C       -10.0348048933        9.6112099729       25.7016660061
  S        -3.9281849294       14.4819164062       36.9972398619
  C        -3.2011892888       17.0178205172       37.6059410334
  H         2.9066760604        6.5397089054        9.6914290245
  H         1.8320918817        6.2950525372       11.0800169289
  H         2.3297322062        7.8980703826       10.6723437487
  H         6.0770196974        4.4004569310       31.4031955581
  H         4.6675184890        5.2907983623       31.8180766854
  H         6.2245118610        5.7132421158       32.5481741530
  H        -9.9573936008        8.9609405184       26.5833331300
  H       -10.7828709405        9.3154517542       24.9880097807
  H       -10.3573382760       10.5972707952       26.0393645785
  C        -4.1870169314       15.2485340845       38.5820278976
  N        -3.8176078736       16.5842701732       38.6956668801
  O        -2.7548171301       18.1669263896       37.4422150083
  S        -4.8988745500       14.6235614181       40.0623627341
  C        -3.7347897147       17.3082957857       40.0086831271
  H        -3.7605292214       18.3689189603       39.8768493291
  H        -4.6577118680       17.1266927379       40.5716565695
  C        -2.4584006151       17.0017381415       40.7545480248
  H        -2.5424744823       16.1105202579       41.3271160949
  H        -1.5920234198       16.9670587107       40.1468003874
  H        -2.1725877259       17.8307977372       41.3809721188
