352
i=
  H         2.6647310603        1.4580765015       13.1263385585
  C         3.5699917368        2.1064055485       12.9998974320
  H         4.3417045657        1.3675500152       12.7540589005
  C         3.2260378176        2.9824399356       11.8261380369
  C         3.9891679906        3.0065260510       14.1372506242
  C         4.3489335045        3.1485075649       10.8787079670
  H         2.7710638106        3.9589992569       11.9639517617
  H         2.3929507279        2.3889724101       11.3924711133
  H         4.1984266535        2.4471037862       15.0240366814
  H         3.1340076782        3.6515685712       14.3722179724
  H         4.8671513076        3.5546955465       13.8476705879
  C         4.7912255926        1.8665307396       10.1579685075
  H         4.1997639605        3.9253938218       10.0764408198
  H         5.1797326450        3.5779644536       11.4336499410
  C         5.1843083320        2.0450051260        8.6806848487
  H         4.0061541226        1.1796948996       10.2176646590
  H         5.5843447930        1.4533680918       10.7730480565
  C         6.5126519667        2.9058321407        8.6386801036
  H         4.4952078257        2.6013730981        8.0642513658
  H         5.2789999583        1.0311104111        8.2766016828
  C         7.8545209111        2.1030564754        8.7771541944
  H         6.5568978057        3.4523424608        7.7065651262
  H         6.3537979812        3.6731056145        9.4114432636
  C         9.0896456108        2.9123033979        9.0537302570
  H         8.0297482051        1.5020075182        7.8608652684
  H         7.7489187909        1.3416593533        9.5979709811
  C         8.8784003163        4.2870691625        9.7707063786
  C         9.6304439926        3.6061259480        7.8429912944
  C        10.2215072153        2.1759373903        9.7900123072
  C         9.0699860962        5.3345744512        8.9218404681
  C         8.5602175305        4.6927355404       11.0641799882
  C         9.5376267482        4.9152196216        7.7117605620
  C        10.1853565439        2.9781978254        6.6955824921
  H         9.8959410085        1.8736405747       10.7933142598
  H        10.3590563029        1.2817264941        9.2496764539
  C        11.5842451614        3.0546743111        9.9154562919
  S         8.6750144719        6.8518763916        9.6109453800
  C         8.3546875363        6.0243786273       11.1303715536
  H         8.6627805091        3.9723160779       11.8771893307
  C         9.9551114674        5.5507169016        6.5599498931
  H        10.4451844367        1.9629396136        6.6713093373
  C        10.6228649625        3.6096566775        5.5598629925
  H        11.4424826726        4.0490805854       10.1879055408
  H        12.0258064136        3.1858131203        8.9387672240
  C        12.6916661094        2.4050811662       10.7038772092
  C         7.8589374768        6.7140357353       12.3657758258
  C        10.5869020022        4.9800447627        5.4741783237
  H         9.7870310138        6.6121546737        6.5860424098
  C        11.0852234965        3.1754167472        4.3024106547
  H        13.6282897440        3.0115468572       10.5679458138
  H        12.8957502570        1.3896653680       10.3455513218
  C        12.3002422734        2.4152005957       12.1903840187
  C         7.9322390082        8.0848378175       12.6023536313
  C         7.1862064143        6.0050446314       13.4773000155
  C        11.1088974305        5.5773634123        4.2261982282
  C        11.3228946058        4.2981908876        3.4968791832
  S        11.3945621097        1.6581062996        3.5106293987
  H        12.0298603913        3.4517293450       12.4997854588
  H        11.4748735438        1.7687811961       12.5280282686
  C        13.3965163203        1.9672636109       13.1669408621
  N         8.3007829874        9.0854689198       11.7173580361
  C         7.6556881627        8.6220736661       13.8920293277
  C         6.9068306935        6.4705662209       14.7309126088
  H         6.7602916502        5.0555169008       13.1817612217
  C        12.3798904325        6.3661801474        4.5077484127
  C        10.0442771187        6.5242214593        3.6185304058
  C        11.7736310721        3.8947791162        2.1804879042
  C        11.7685236305        2.5407859249        2.0273947712
  H        13.9907230549        2.8573049633       13.3037166735
  H        14.0704361110        1.2359389419       12.7166537098
  C        12.9132042906        1.3890937139       14.4973196807
  S         8.3991784806       10.5104506216       12.5113842826
  N         7.9045924659       10.0314238548       13.9327872223
  C         7.2399853814        7.8937499384       15.0465107173
  H         6.5207503279        5.8064718004       15.4545871645
  H        12.0761560733        7.1736208000        5.1129815371
  H        12.7501627147        6.8870607508        3.5653647061
  C        13.4421612498        5.5179133592        5.1975145491
  H         9.6165212908        7.2208666704        4.3722435580
  H        10.5895224939        7.1041005768        2.8848434641
  C         9.0088063243        5.5811046546        2.9640208392
  H        11.8503877701        4.6947476111        1.4707674951
  C        11.9576222353        1.7666180178        0.7212805019
  H        12.4160172161        0.4087377364       14.2886113871
  H        13.6953405611        1.1114108610       15.1491616111
  C        12.0828408560        2.4072052474       15.3499127288
  C         7.0431550203        8.5758550691       16.3077785225
  H        13.1179071459        5.0678652483        6.1131947019
  H        13.6255556030        4.7100262791        4.5393157904
  C        14.7796779593        6.3252601825        5.2875024677
  H         8.5119653250        4.9020468102        3.6607063830
  H         9.4024783707        5.1133594593        2.1111652460
  C         7.8384978995        6.4479982202        2.5516666134
  C        12.0296335227        0.2988970752        0.5380901410
  C        11.9894641510        2.5216003096       -0.5484825699
  H        11.0097615494        2.3131606998       15.2832591987
  H        12.2715177012        3.5063033955       15.1563947212
  C        12.4759342747        2.3052114296       16.8051322192
  H         7.1618351080        9.6727307231       16.3778618895
  C         6.7185444781        8.0272572922       17.5583859787
  H        14.5748919739        7.0785708394        6.0324788088
  H        15.0927863480        6.7589975437        4.3265289246
  C        15.9382574733        5.4986306409        5.7902289070
  H         7.5232592863        7.0114307188        3.3858293838
  H         8.1413916965        6.9983555528        1.6518556248
  C         6.6753144241        5.4769352595        2.1293713864
  N        11.8833888101       -0.5823683429        1.5731204800
  C        12.1641127349       -0.3349679624       -0.6662839579
  C        12.2024369810        1.8629100945       -1.7361106027
  H        12.0750381718        3.5400431472       -0.6203182970
  H        13.6108375244        2.4738675492       16.9697653745
  H        12.1731804566        1.3638202038       17.2652031681
  H        12.0062136363        3.0432283292       17.4537939363
  S         6.4090652820        6.3852688013       17.9958341538
  C         6.6020905261        9.0303112627       18.6568676879
  H        15.5902282511        4.6799437019        6.4051191899
  H        16.3772877655        5.0053175608        4.8882978258
  C        17.0363398082        6.3719141111        6.4355417967
  H         6.6045152104        4.7140418625        2.8705769551
  H         6.9062477354        4.9265953756        1.1464541407
  C         5.3031862658        6.1059651097        2.1679641911
  S        11.9726255405       -2.1070377397        0.9364447658
  N        12.3818326113       -1.6682793008       -0.5646157715
  C        12.3867895834        0.4012146502       -1.8025060335
  H        12.2440521863        2.4539995408       -2.6144655434
  C         6.2933416063        7.0230846604       19.6725451724
  N         6.2392112124        8.4081575318       19.7938599220
  O         6.9384059747       10.1840438942       18.5938195491
  H        17.5920988278        6.9796397108        5.6390702917
  H        16.7469438122        7.1141397460        7.1349509204
  C        18.1510286725        5.5993596388        7.0936333201
  H         4.6443663037        5.6686119520        1.4366858491
  H         4.7541616209        6.0064669214        3.0798198708
  C         5.3451516591        7.5272068150        1.5749011877
  C        12.6744376794       -0.2931611931       -2.9887560661
  S         5.5835378593        6.1558704569       21.0492672336
  C         6.1075160953        9.1840864994       21.0412747209
  H        17.7174245639        5.4039908354        8.1046189008
  H        18.3139385251        4.6107197195        6.6436411483
  C        19.4296373034        6.2797674116        7.0481906058
  H         5.8665972280        7.5136760609        0.5623597181
  H         5.8775724308        8.1664567544        2.2795146405
  C         4.0588759783        8.1986328047        1.2753116380
  H        12.4232281194       -1.3814276095       -2.8442130028
  C        13.2240790791        0.0281034752       -4.2153269091
  H         5.2390878622        8.8074668539       21.5945442924
  H         5.9825911787       10.2000236189       20.7485170034
  C         7.4268444914        9.0008150094       21.8167004867
  H        20.1010573215        5.9501521251        7.8248433874
  H        19.3982771652        7.4087482389        7.2976060711
  C        20.0492815829        5.9248567418        5.6801355449
  H         3.6200100142        7.8959332379        0.3558655162
  H         3.2898091016        7.9078611880        2.0262605133
  C         4.1476072524        9.7155432788        1.2478181991
  S        13.6817457294        1.6351299930       -4.6861909208
  C        13.3395688866       -1.0185410972       -5.2891963264
  H         7.6396869022        7.9607772692       22.1214913178
  H         7.4744337721        9.7171694353       22.5984564124
  H         8.2306183741        9.2679951969       21.1196326832
  H        20.2618480913        4.8735724710        5.6844580466
  H        19.4333933961        6.0988671929        4.8286552523
  H        21.0611213615        6.3027140780        5.4876600363
  H         4.8397940918       10.0727500656        0.4620630956
  H         3.1362635339       10.0828833620        1.1745977254
  H         4.6343561463       10.1425821354        2.1189969397
  C        14.1138895058        0.9190666637       -6.1766237194
  N        13.9930070723       -0.3920494149       -6.3341646726
  O        13.1250959070       -2.2705170075       -5.0548131523
  S        14.5966619151        1.8013025249       -7.6051557293
  C        14.2180945538       -1.2013082503       -7.5547946013
  H        14.4374235449       -2.2072164022       -7.2648004655
  H        15.2340670172       -0.9800589575       -7.9627098048
  C        12.9635379851       -1.1354023392       -8.4731151315
  H        12.0723223478       -0.8000802437       -7.8157108765
  H        12.8132051232       -2.0169658516       -9.0454690997
  H        13.1920079359       -0.2680408405       -9.1600852274
  H        -3.0150667366       15.0255202882       16.7156673315
  C        -2.7997655127       13.9879335224       16.5436082164
  H        -3.7264333277       13.4372451794       16.7101681256
  C        -1.7326566679       13.5123859401       17.5391833449
  C        -2.4105685479       13.7109553796       15.0901005382
  C        -1.9560326906       14.0086276248       18.9429973581
  H        -1.8129689409       12.3949404571       17.5426860545
  H        -0.7563809387       13.8547676807       17.1690516095
  H        -1.4504346444       14.1620561679       14.8130585711
  H        -2.4543607456       12.6856184972       14.6671578842
  H        -3.0982620761       14.2607371092       14.4996153348
  C        -1.8946574098       12.8607369631       19.9059485652
  H        -2.9187601925       14.5527032198       19.1220952997
  H        -1.1273855198       14.7269811879       19.1119161487
  C        -2.2716810178       13.3801614962       21.3513508786
  H        -2.5603405102       12.0500408209       19.6376731302
  H        -0.8784449327       12.4785863349       19.9182139760
  C        -1.2115872016       12.9897985561       22.3846755487
  H        -3.2825108749       12.9901870361       21.6044073676
  H        -2.4108313410       14.4703911916       21.3045011311
  C         0.0621162619       13.7718414022       22.3963806890
  H        -1.6470041254       13.1162626417       23.3909767796
  H        -0.9666472715       11.9574030245       22.1989000130
  C         1.3024015919       13.0244500887       23.1486190810
  H         0.3495057692       13.9641303106       21.3914611555
  H        -0.0008839222       14.6722532252       22.9367344908
  C         1.7162552824       11.7816969853       22.4414303773
  C         0.9311896722       12.3122775570       24.3796538900
  C         2.5905390983       13.9822284030       23.2263547270
  C         1.3932917405       10.6402929730       23.1603826770
  C         2.1697511445       11.4869215870       21.1303664039
  C         0.9358413788       10.9846312889       24.4363695677
  C         0.4835983315       12.9895867880       25.4867436120
  H         2.8018759683       14.3390114621       22.2565646602
  H         2.3854982023       14.8525517556       23.8605759652
  C         3.9071176234       13.3355431482       23.6702196848
  S         1.8079736560        9.1985606057       22.3566127708
  C         2.3538648540       10.1278142371       20.9879497974
  H         2.3569927486       12.3188515415       20.4626027190
  C         0.4952368762       10.4441431948       25.6100217563
  H         0.4020279186       14.0770961092       25.4236402773
  C         0.0283467563       12.4030302903       26.6684062613
  H         4.2383637395       12.6103553810       23.0196795060
  H         3.6509474694       12.7977642780       24.5788788301
  C         4.9675602715       14.3439727297       23.8874518857
  C         2.8055019912        9.4675067723       19.7480994913
  C         0.0887830147       11.0839046686       26.7689788379
  H         0.4550180061        9.3848076587       25.6928704233
  C        -0.4201586416       12.7748060063       27.9485343774
  H         5.7894884328       13.8939747258       24.4797866132
  H         4.6982905955       15.1656503516       24.5391476911
  C         5.5243856321       14.7477955243       22.5243429038
  C         2.8363300529        8.0416643813       19.4850162092
  C         3.3238617370       10.3484093801       18.6546790112
  C        -0.3817682136       10.4318644606       28.0190691492
  C        -0.5462109321       11.6840595393       28.7636045961
  S        -0.4621919226       14.2522519378       28.7093178062
  H         6.2419416692       15.4914803133       22.7755837894
  H         4.8355607239       15.1933518534       21.8562884186
  C         6.2187533777       13.6863916736       21.7152528131
  N         2.6173260309        7.0629552027       20.3917241887
  C         3.0102327528        7.6084691442       18.2468062449
  C         3.5585524730        9.8019717690       17.3598028702
  H         3.3650945105       11.4474465681       18.7809720555
  C         0.8039341324        9.6194927381       28.6376438159
  C        -1.7099478835        9.7088590172       27.9643483788
  C        -0.9142351951       12.1273383093       30.0539005470
  C        -0.9160093534       13.4808413971       30.1605826413
  H         7.2696056970       13.7828396406       21.6031835571
  H         6.1443755750       12.7846277047       22.3759636465
  C         5.5763017416       13.3567621578       20.3640878372
  S         2.6232017907        5.6396277932       19.5477073480
  N         2.8818534660        6.2318484245       18.0860539413
  C         3.3701192918        8.3659717759       17.1506526596
  H         3.8868284345       10.4419717427       16.5835790108
  H         1.1738151286        8.9498132379       27.9140739185
  H         0.5260801107        8.8852284273       29.4129209343
  C         2.0163624609       10.4871405490       29.0104064991
  H        -1.6096150495        8.8732160158       27.1943236803
  H        -2.0519742825        9.2564583032       28.9160377050
  C        -2.9111736413       10.5699112553       27.5487369115
  H        -1.0603663777       11.3430093154       30.7891885004
  C        -1.2758643852       14.2940896496       31.3585621403
  H         4.9343894343       14.1444855732       20.0703040466
  H         4.8491835713       12.5545941516       20.4734624205
  C         6.5725428147       13.3754038402       19.1943269447
  C         3.5321380838        7.7536493245       15.8529218379
  H         2.3433657655       11.0767286771       28.1358421484
  H         1.6353391708       11.2118427848       29.7252798538
  C         3.1661032722        9.6669220950       29.6381363491
  H        -2.6996825676       11.1521335775       26.6606195062
  H        -3.1430419290       11.2687342966       28.2725488711
  C        -4.1506097604        9.7122955219       27.1936299926
  C        -1.2414322089       15.7041508691       31.5048001584
  C        -1.5734959687       13.5461792989       32.6284561081
  H         7.0254780260       14.3647209886       19.0597401026
  H         7.2692988474       12.6127735442       19.2125588507
  C         5.8389722835       13.1567962450       17.9380285204
  H         3.4065408327        6.6685049097       15.8706081694
  C         3.8033540217        8.2465671162       14.6009710682
  H         3.3222475305        8.8277682644       29.0367908595
  H         2.9176421235        9.2028189407       30.5609626892
  C         4.4706518135       10.4708979794       29.7893076480
  H        -3.9100146121        9.2781090078       26.2078388324
  H        -4.1198172431        8.9071082167       27.9324950205
  C        -5.4859964167       10.4725716122       27.1407447945
  N        -0.9954998868       16.6273698377       30.4999734220
  C        -1.4895694316       16.3615371500       32.7042141072
  C        -1.7373899368       14.1518137907       33.8400726178
  H        -1.5076861762       12.4728015607       32.6154394151
  H         6.4902239244       12.4973890828       17.3261496578
  H         4.9115035517       12.6431564565       17.9619717692
  H         5.7302872672       14.1243086329       17.4014302706
  S         3.9669518124        9.8868348824       14.2669187584
  C         3.9355200446        7.2653122918       13.4745309764
  H         4.5933882822       11.2417581322       29.0354213652
  H         4.4425736391       11.0488090177       30.7357817358
  C         5.6912843855        9.5367342419       29.6960747938
  H        -5.2844169088       11.4267798429       26.5780000681
  H        -5.7923078560       10.7318748976       28.1771329303
  C        -6.5634424651        9.7636680259       26.3530745269
  S        -1.1218676779       18.1529221985       31.0336295491
  N        -1.4358191919       17.7604347183       32.5862752376
  C        -1.7737989828       15.6764888525       33.8968974991
  H        -1.8211350661       13.5180458622       34.6813919630
  C         4.4559994869        9.3033165882       12.6946873850
  N         4.3089906546        7.9767129653       12.3923828172
  O         3.8750339939        5.9870140066       13.5445331541
  H         6.6273928663       10.1028101782       29.6725193028
  H         5.5716410989        8.9511807108       28.7401978670
  C         5.7562497037        8.5871541679       30.8730380664
  H        -5.9761786658        9.4401187402       25.4600147456
  H        -6.9393414590        8.9153791409       26.9453069364
  C        -7.6822826214       10.7413948730       25.9958575833
  C        -2.1348125936       16.4348038521       35.0102650158
  S         4.8543085150       10.4438558761       11.4301418855
  C         4.4598118199        7.2832682540       11.1094913935
  H         6.4672563589        9.1000854000       31.5450539387
  H         4.8462164697        8.3158950093       31.3472607274
  C         6.3792816311        7.2299078473       30.4845739688
  H        -7.3670770833       11.5314711619       25.3511478170
  H        -8.0377777262       11.2115915989       26.9312213477
  C        -8.7742680335       10.0666109817       25.1707938631
  H        -1.9269441354       17.4866062733       34.9821447566
  C        -2.5708261041       16.1577674222       36.2836571697
  H         5.1215996125        7.8302109378       10.4401119133
  H         5.0733545281        6.4110234994       11.2785320703
  C         3.1331129624        6.9517761301       10.4304890779
  H         7.4165857061        7.4805636401       30.1559968652
  H         5.9130514345        6.8334736566       29.5641547494
  C         6.2818297395        6.1423547240       31.5327721503
  H        -8.7252507774       10.5215332018       24.2250561374
  H        -8.5249919316        9.0726100728       24.8714802680
  C       -10.1364995926       10.0861593217       25.8085977429
  S        -2.9279473230       14.6436172064       36.8914726083
  C        -2.8647442630       17.2692956976       37.2036694504
  H         3.0451772347        7.4566019009        9.4933221417
  H         3.0236095745        5.8828472539       10.1200444749
  H         2.2939829542        7.2156537465       11.0986958354
  H         6.8012407442        5.2104689997       31.2270711649
  H         5.2875896392        5.9924616621       31.8205163264
  H         6.9090675476        6.4364805176       32.3935855773
  H       -10.0316994712        9.4087620629       26.6129692781
  H       -10.8889259817        9.8167685383       25.1175311486
  H       -10.3161083269       11.0673239915       26.2960211174
  C        -3.4780168380       15.4818596839       38.3765840750
  N        -3.4198127217       16.8142271837       38.2882766220
  O        -2.7367201390       18.4867972997       36.8718274366
  S        -3.9115008641       14.6644207780       39.8773665063
  C        -3.7771657456       17.6334655741       39.4427559037
  H        -4.0575101486       18.6226316246       39.1656383351
  H        -4.6108429845       17.2443199062       40.0358948264
  C        -2.5739445779       17.7882541841       40.4620404506
  H        -2.9149068507       17.9204059069       41.4421861705
  H        -1.8534093160       17.0064561602       40.4417644171
  H        -1.9745738392       18.6083478404       40.1456700529
