352
i=
  H         4.8853087918        2.3014880794       12.8563277138
  C         3.8961855848        2.8655901020       13.0454943704
  H         4.2991595725        3.8439167825       13.2398459623
  C         3.0661126011        2.9495897270       11.8228105785
  C         3.0506445315        2.4349797466       14.2966864288
  C         3.9072097178        3.0275333540       10.5685162261
  H         2.3515690283        3.7362747322       11.8558279615
  H         2.5350328139        1.9683996417       11.8016410231
  H         2.6890123830        1.3946689424       14.1588305034
  H         2.1670640568        3.1550281659       14.3534412632
  H         3.4748179140        2.3762691118       15.3317265141
  C         4.4888592424        1.6883670330       10.0912587500
  H         3.3592290180        3.4336631861        9.7855809569
  H         4.7510246760        3.7641177581       10.5386095164
  C         5.2245424077        1.7423868230        8.7002300476
  H         3.7866888315        0.8281051114       10.0420330453
  H         5.1600550570        1.3326763876       10.8940194158
  C         6.5800181481        2.4986595995        8.6194821865
  H         4.5419254927        2.2324655249        8.0320836923
  H         5.2925812554        0.7151352650        8.3808748367
  C         7.8644590921        1.7456338526        9.1165233632
  H         6.7458056841        2.7912679874        7.5955681250
  H         6.4261240794        3.4448563841        9.1992577152
  C         9.0723704929        2.6603501876        9.4149974948
  H         8.1179274693        0.9093281689        8.5070865812
  H         7.6159055445        1.2590491513       10.1069748565
  C         8.6669835417        3.9764260722       10.1324468049
  C         9.4839069141        3.4242362163        8.2235331909
  C        10.2699105090        1.9397074317       10.0910945668
  C         8.9281374564        5.0900215632        9.4005184201
  C         8.0035227790        4.3188146344       11.3161581836
  C         9.4129596646        4.7626479983        8.1581497938
  C        10.0260044604        2.8121554992        7.0862858279
  H         9.8656838117        1.4675726590       11.0337551224
  H        10.6180488449        1.1673973388        9.3791718551
  C        11.5512975646        2.7525952411       10.4010942481
  S         8.4505203760        6.5650505177       10.0954375083
  C         7.9722887855        5.6911219145       11.5057294837
  H         7.7391065225        3.5031561018       12.0016871427
  C         9.8494582990        5.3493173754        6.9528170643
  H         9.8941985720        1.6849051805        7.0569390941
  C        10.4090665387        3.3848177971        5.9004456941
  H        11.1799051294        3.7089692293       10.4060838434
  H        12.2261115489        2.7467334697        9.6159148457
  C        12.2376416583        2.2887925864       11.6961631129
  C         7.5041782749        6.4165227204       12.7335086201
  C        10.2258219617        4.7289267510        5.7700281051
  H         9.7210899102        6.4288737462        6.8795460297
  C        10.9015635292        2.9837443849        4.7046282585
  H        13.3029114703        2.5194317850       11.4842837537
  H        12.2570969604        1.2148134912       11.5688903495
  C        11.7300982347        2.7092340410       12.9945188821
  C         7.5632964667        7.8405054843       12.9841211191
  C         7.0773824970        5.6262776055       13.9179394930
  C        10.7167919822        5.3416085280        4.4924506707
  C        11.1692283309        4.0602533460        3.8707593114
  S        11.1443984819        1.4634906418        3.9367297918
  H        12.0811654314        3.6930915897       13.2425866935
  H        10.6654272254        2.7059276775       13.0009269091
  C        12.2858176300        1.7843004096       14.1456609254
  N         8.0293278699        8.7522893613       12.0199908751
  C         7.3384375873        8.4453579752       14.1942119295
  C         6.8214068464        6.2139336541       15.1062247994
  H         7.0426322226        4.5940272755       13.8679199550
  C        11.8590789022        6.2852348985        4.8133183672
  C         9.6245707927        6.0334327232        3.5948382785
  C        11.7306218482        3.6617217081        2.6573017859
  C        11.6999408561        2.3151677838        2.5166996011
  H        13.0920280884        1.1423751947       13.7721223868
  H        11.5168260001        1.1195218814       14.4356590542
  C        12.8615653425        2.5254607456       15.3169313357
  S         7.8322286846       10.2853298254       12.6650777796
  N         7.5128103480        9.8012267459       14.1483257973
  C         7.0087575104        7.7058427082       15.3406216743
  H         6.6257235169        5.5168263433       15.9808369887
  H        11.4607431729        7.0220139258        5.5176737021
  H        12.2114546832        6.8520376613        3.9041145716
  C        13.1568037754        5.6133626348        5.3334335960
  H         9.0046166675        6.6639737761        4.2021467353
  H        10.0674989398        6.7190376523        2.8885413424
  C         8.5714883292        5.2208708604        2.9051732985
  H        11.9581226552        4.3530938682        1.9560867931
  C        11.9619648586        1.5208868317        1.2315230721
  H        13.7452087303        3.1256306254       14.9321592895
  H        12.1521679581        3.2224625486       15.7164826930
  C        13.3067983530        1.6456083667       16.4935743551
  C         6.8780635636        8.4632781744       16.6156436777
  H        13.0508456864        4.8088244990        6.1438112298
  H        13.6607186007        5.0529901133        4.4860826111
  C        14.2307227898        6.6962976947        5.7590423375
  H         8.0277465310        4.6035914906        3.6298070840
  H         8.9876453144        4.5194344755        2.2229881308
  C         7.6100930096        6.0384063162        2.0467539364
  C        11.8640545640        0.1135498087        1.0597434694
  C        12.2369624043        2.3179295020       -0.0238403256
  H        14.3534330619        1.4505503680       16.3185228990
  H        12.8040170379        0.6115207868       16.5163784377
  C        13.0671167871        2.3674907114       17.8410173092
  H         6.9507612320        9.5116782973       16.5291183985
  C         6.5682448129        8.1052789629       17.8990964425
  H        13.5899258826        7.3924786237        6.3750580073
  H        14.4567406479        7.3388182909        4.9310816178
  C        15.5292190283        6.2569095890        6.4801656013
  H         7.2861840374        6.9418509835        2.6277765106
  H         8.1508510877        6.4083729454        1.1493352690
  C         6.3551660578        5.2617347773        1.6175000503
  N        11.6206424177       -0.8198778170        2.0940391966
  C        12.1812274511       -0.4775686128       -0.1886415501
  C        12.4045944377        1.6665664490       -1.2616354123
  H        12.3239847170        3.3773555893       -0.0021750100
  H        13.9549118593        2.3499206500       18.5065965402
  H        12.3166075315        1.8372668866       18.3775455066
  H        12.8082142944        3.4114617050       17.7265447377
  S         6.2855953326        6.4845677337       18.5003092019
  C         6.5188488438        9.1169723674       18.9669857477
  H        16.0687068537        7.0880981803        6.9594059440
  H        15.2873897458        5.5852135197        7.2514441215
  C        16.4533369973        5.4670242756        5.5243807254
  H         6.4223152809        4.3237177056        2.1342005898
  H         6.3531192335        5.1961965345        0.5173363343
  C         4.9883162688        5.9555001760        1.8706142469
  S        11.7367386633       -2.2930168790        1.4041987460
  N        12.1275533408       -1.8493250652       -0.1016268569
  C        12.4489505363        0.2026554991       -1.3944799330
  H        12.5985263797        2.2399750964       -2.1241140905
  C         6.1384427722        7.2253859353       20.1190887572
  N         6.2797007383        8.5870254779       20.1658442891
  O         6.7447395399       10.3346430973       18.7968274288
  H        16.1153148020        4.4967117865        5.3821799882
  H        16.5684100683        6.0225384143        4.5209562192
  C        17.8265835681        5.3229304497        6.1079024313
  H         4.2676307766        5.1595055305        2.0490065216
  H         5.0454220511        6.5246132901        2.7998730031
  C         4.6263757652        6.9776219854        0.7318482395
  C        12.8781916231       -0.5784549550       -2.4893051916
  S         5.6058071096        6.3197909230       21.5329049005
  C         6.4245860501        9.3454765122       21.3704939803
  H        17.8725002545        4.8269215999        7.0886232527
  H        18.4698620013        4.5724061046        5.6291008896
  C        18.7602502876        6.5580791921        6.1493979513
  H         4.1397387911        6.5734289280       -0.1589057434
  H         5.5817876858        7.4963236008        0.4728714438
  C         3.5886490297        8.0333383951        1.2811331499
  H        12.8086239683       -1.7020407434       -2.4573538673
  C        13.4105703752       -0.1173245290       -3.7110627569
  H         5.8874925219        8.9982993227       22.2371574199
  H         6.0300894320       10.3638425253       21.3172415651
  C         7.9306455633        9.3762180211       21.8044540000
  H        18.2264894249        7.3225053486        6.7345438428
  H        18.6805518271        6.9493831624        5.1367089674
  C        20.1387351427        6.3423234692        6.7027414819
  H         2.7466725038        8.1463641872        0.6519231759
  H         3.2448958698        7.5616131975        2.1248863015
  C         4.3735467052        9.3373147506        1.6004746629
  S        14.0081600841        1.4980440098       -4.2680596891
  C        13.5013299448       -1.1251369520       -4.8062405154
  H         8.1031613197       10.1356056136       22.5783257144
  H         8.4452651406        9.7465016704       20.8724991743
  H         8.3202456249        8.4929759668       22.4019681182
  H        20.0968727479        6.1276646280        7.7827231002
  H        20.7003077616        5.4867845262        6.1778577846
  H        20.7678704613        7.2534090239        6.5215031663
  H         5.1646371175        9.6243795208        0.8694605545
  H         3.7723071575       10.2043696911        1.8253299466
  H         4.9097609608        9.1362841208        2.5603373705
  C        14.3331438451        0.7665990148       -5.8128854382
  N        13.9929667035       -0.5492103102       -5.9058368923
  O        13.1355982239       -2.2893632506       -4.6615108117
  S        14.9417614038        1.6309827728       -7.2918384314
  C        14.1501477452       -1.3524992332       -7.1264510807
  H        14.3051948720       -2.4212026261       -6.8425918699
  H        15.0397481182       -1.0463076877       -7.7476952267
  C        12.9466709340       -1.2730149989       -7.9695818638
  H        12.4280515039       -2.2341587935       -7.8673481206
  H        13.2669997366       -1.3845436801       -8.9842587400
  H        12.3213071823       -0.3566037006       -7.9256529052
  H        -3.4093215470       14.9861219368       16.4096203148
  C        -3.3181047039       13.9590287867       16.6497030238
  H        -4.3031887391       13.5858335477       17.1325791594
  C        -2.0954248367       13.6330456740       17.4947208943
  C        -3.2229705272       13.3195369299       15.2967889578
  C        -2.5191925446       13.2650610364       18.9225927222
  H        -1.5702449726       12.7563074720       17.0650768968
  H        -1.4014450982       14.4829039210       17.5324202470
  H        -2.3421097905       12.8073795314       15.0672822820
  H        -4.0984247582       12.7634862876       15.0206328582
  H        -3.4577940336       14.1486133225       14.6174758633
  C        -1.2598720430       13.3570415755       19.8709403559
  H        -2.9827441145       12.2372719036       19.1346169974
  H        -3.3170446004       13.9893954616       19.0038686891
  C        -1.8313886912       13.4029019203       21.3359957297
  H        -0.5915445819       12.5634823151       19.6640263901
  H        -0.6757916033       14.3349180837       19.6930165827
  C        -0.9225652805       12.7748708763       22.3849627221
  H        -2.7775691831       12.9026891781       21.3210072274
  H        -2.0280152613       14.4561448942       21.5472210072
  C         0.2733581950       13.7203809539       22.6820468549
  H        -1.4715154031       12.4934185148       23.2724921061
  H        -0.5948034332       11.8424145546       22.0268819254
  C         1.4528930676       13.0550537204       23.4888480111
  H         0.6943002236       13.8948463237       21.7076411694
  H         0.0110582025       14.6881866992       23.1011549161
  C         1.8561065922       11.8074630358       22.7508330337
  C         1.0238240713       12.3234312603       24.7047008571
  C         2.6226419536       14.0411698821       23.8882410727
  C         1.6192611725       10.6694999869       23.5131354987
  C         2.3360852691       11.4779496689       21.5120186657
  C         1.1354388931       10.9971743801       24.7405860733
  C         0.4558393374       12.8461427279       25.8352312132
  H         2.7295786866       14.8547112526       23.1331435985
  H         2.2427974105       14.7026035424       24.7048871706
  C         3.9561045483       13.3370079873       24.0914540940
  S         2.0828550327        9.1626575248       22.7633556603
  C         2.4562274258       10.1477929603       21.3395739092
  H         2.4811164758       12.2385973893       20.7934729975
  C         0.6911224463       10.3368060835       25.8539462657
  H         0.3243248181       13.9657263136       25.8688429477
  C         0.1263631740       12.2172236449       26.9698462813
  H         4.1074165663       12.8278744201       23.1919104095
  H         3.8140915654       12.5377389774       24.8725289257
  C         5.0560150929       14.3757214741       24.3764502279
  C         2.9334477250        9.5211030986       20.0852929119
  C         0.2107052105       10.9061673630       27.0010382075
  H         0.6578307514        9.2826066849       25.7115121346
  C        -0.2421781575       12.6003523725       28.1804661757
  H         5.9459793181       13.8758472342       24.7493418652
  H         4.6009427686       14.9689264275       25.2139347598
  C         5.6067024620       15.1240937844       23.1881581787
  C         2.7077331436        8.1280548297       19.8000165423
  C         3.1455878248       10.3909652262       18.8768707375
  C        -0.1945882112       10.1799308348       28.2333549159
  C        -0.5029414930       11.4918915297       28.9484419118
  S        -0.5056778958       14.0739118665       28.9401233929
  H         6.1571442383       15.9153272676       23.6656949898
  H         4.8124951763       15.5547489219       22.6289165854
  C         6.4713700369       14.2044120310       22.3514397471
  N         2.3688664223        7.1434877449       20.6413045096
  C         3.0774790475        7.6046766210       18.5973872931
  C         3.2857893518        9.7885405160       17.6578893467
  H         3.2154923462       11.4753818003       18.9516928861
  C         0.9888597508        9.4449907469       28.8928675243
  C        -1.4188607367        9.2653076780       27.9697710062
  C        -0.9551394375       11.8280096806       30.2141336079
  C        -0.9564832953       13.1963497263       30.3695969965
  H         7.3726774524       14.8881126943       22.3663711483
  H         6.7538938993       13.2631496743       22.9045837710
  C         6.0384978300       14.0464895551       20.9153239041
  S         2.5480797089        5.6795349941       19.9667463585
  N         3.0338067468        6.1949522492       18.5111053518
  C         3.2457664231        8.3458310266       17.4039537399
  H         3.4583277765       10.4081050591       16.8308922181
  H         1.5500429553        8.8412048105       28.2230142440
  H         0.6440756124        8.7631164766       29.6662252961
  C         2.0447828353       10.3858677385       29.4936509008
  H        -1.1551848946        8.4857462682       27.2717552204
  H        -1.8030533420        8.7517035557       28.8308425765
  C        -2.6578176001       10.0824916834       27.4003124737
  H        -1.3642914774       11.1319880529       30.9487304265
  C        -1.4045724188       13.9293933334       31.5596457838
  H         5.7730006058       14.9977363138       20.5058660745
  H         5.1741165187       13.4095997271       20.8120884280
  C         7.1244101629       13.4132724489       20.0842047900
  C         3.4091495163        7.7694081100       16.0798696801
  H         2.3379545058       11.1640088489       28.7469144299
  H         1.6097195120       10.9651095705       30.2374593507
  C         3.2631342895        9.5997797976       30.0012294444
  H        -2.3995418844       10.3401250948       26.3692069593
  H        -2.7943578983       11.0328903705       27.9440239478
  C        -3.9035745898        9.2094233082       27.3977756116
  C        -1.4030122632       15.3327094262       31.7015788978
  C        -1.6257509366       13.1632810308       32.7742173998
  H         8.0132938769       13.5773545211       20.6488676295
  H         7.0050992761       12.2909630969       20.0655364768
  C         7.2717140370       13.9659008493       18.7236353926
  H         3.3926041852        6.7232069493       16.0631852281
  C         3.6515326706        8.2774361659       14.8208914681
  H         3.8963028106        9.1339870627       29.1727515419
  H         2.8339964752        8.7146612921       30.4519873327
  C         4.2535198191       10.3355164039       30.9300346318
  H        -3.8240935599        8.5607613682       26.4837883988
  H        -4.0265589389        8.5021216389       28.2533316862
  C        -5.2298471083        9.8698764775       27.2557474326
  N        -1.2574262267       16.2277161594       30.6577139233
  C        -1.6036680300       15.9709750151       32.9356617093
  C        -1.8551998716       13.8128883442       34.0010246074
  H        -1.7680045413       12.0936893333       32.6529022886
  H         6.4014856017       13.6932243600       18.0820529086
  H         7.5812908376       15.0080410927       18.6176825721
  H         8.1722964184       13.4368444487       18.3793649850
  S         4.0914552267        9.8628512491       14.3147287385
  C         3.6657729371        7.2347562310       13.6936142402
  H         4.2585004438       11.4048292836       30.7813232803
  H         3.8996302576       10.2166069069       31.9593447332
  C         5.6531813213        9.8038416598       30.8805048546
  H        -5.2721189508       10.7233777469       27.9013199779
  H        -6.0148196815        9.2158180996       27.6213159932
  C        -5.4437531534       10.4513204822       25.8906998148
  S        -1.3931150422       17.7182859049       31.2438098461
  N        -1.6210605150       17.3491940318       32.8027957763
  C        -1.8960080581       15.2391856503       34.0852421244
  H        -2.0867971501       13.1703101215       34.8321114098
  C         4.3036277218        9.0769938668       12.6710697909
  N         4.1463028474        7.7468737069       12.5885131556
  O         3.3327819655        6.0326591759       13.8313003440
  H         6.3724599286       10.3751428496       31.4710230165
  H         6.0110234217       10.0393355288       29.8859373452
  C         5.7557007876        8.3036191164       31.4145620118
  H        -4.8680252034       11.3953768322       25.8789533978
  H        -5.1062612474        9.7931618276       25.0867249618
  C        -6.9053418364       10.8774949393       25.5735127973
  C        -2.2310281350       15.9975148167       35.2577867385
  S         4.6783915676        9.8940503316       11.1973821084
  C         4.2903485075        6.9168601492       11.4470441106
  H         5.9993824129        8.3521649236       32.4930024461
  H         4.7533702073        7.8233948850       31.3185435066
  C         6.7198876011        7.4801845611       30.6513486431
  H        -6.7695201717       11.2816003122       24.5894829772
  H        -7.1357433950       11.6459528509       26.3242417425
  C        -7.9915968818        9.7743565357       25.3298254899
  H        -2.2346878723       17.0853805401       35.0766054816
  C        -2.6961038641       15.6309150480       36.5013217556
  H         5.0591836938        7.3954547393       10.7574141933
  H         4.7438824428        6.0286527072       11.8698786579
  C         2.9337038927        6.7141346690       10.7443166322
  H         7.6420051495        7.9597260775       30.3043553576
  H         6.3200064514        7.2202258077       29.7118516212
  C         7.1101854387        6.2146788015       31.4939485145
  H        -7.9358211325        9.6459607136       24.2548006540
  H        -7.7265390050        8.8564075867       25.8812735322
  C        -9.3757810940       10.2836912344       25.7315480447
  S        -3.0630220382       14.0540348931       37.0645380204
  C        -3.1369750378       16.7320888001       37.3804168988
  H         2.3077535705        7.6737013382       10.7831797482
  H         3.0474784483        6.4838126074        9.6834540733
  H         2.2961076117        5.9476374928       11.1980073304
  H         7.0377795549        6.3894555671       32.5754405659
  H         8.1360939692        5.9910602111       31.2059364759
  H         6.3659546207        5.3940458818       31.2956842229
  H        -9.8976242357       10.7194013776       24.8758465389
  H        -9.4436997369       10.9188504458       26.6128783420
  H       -10.0947320952        9.4567744031       25.9520059748
  C        -3.7546021830       14.8543802160       38.4735050846
  N        -3.6288989724       16.2313959096       38.4724764919
  O        -2.8365364988       17.9213526721       37.1691518662
  S        -4.3210428552       14.1290942645       39.9813603817
  C        -3.8795023307       16.9743892776       39.6729786196
  H        -4.1123213333       18.0610530799       39.4889260135
  H        -4.7898202688       16.6387000175       40.0836253077
  C        -2.7171600046       16.9314603832       40.6758462328
  H        -1.8658586918       16.4013981667       40.2409953701
  H        -2.5007749073       17.9048694755       40.9677165161
  H        -3.0098477752       16.4589554376       41.6233168234
