352
i=
  H         4.6308427913        1.5001618208       12.0483913589
  C         4.1309026120        2.3936187191       12.3205909469
  H         4.8823823425        3.1800152021       12.3043092352
  C         3.0861431880        2.5113638718       11.2092416353
  C         3.6218302102        2.1496762511       13.7790482870
  C         3.7178137617        2.8905717129        9.8975372467
  H         2.2931367548        3.2693678160       11.3245621329
  H         2.5502926843        1.5728943280       11.2091765948
  H         4.4259873389        2.0406673469       14.4409727526
  H         2.9888434739        1.2893177073       13.9738688981
  H         2.9401232452        2.9475882816       14.2568877526
  C         4.4045522524        1.7106717556        9.2179995674
  H         2.8330804488        3.1682751095        9.2934672399
  H         4.3302238954        3.8314158664        9.9945240193
  C         5.2394281678        1.9967055644        8.0517999781
  H         3.5003926729        1.2203743056        8.8633287314
  H         4.8762651575        1.1075154839       10.0257449469
  C         6.5761272863        2.7437727698        8.3291787671
  H         4.7551304542        2.7003319176        7.3939125021
  H         5.3151172494        1.1750372608        7.3579451897
  C         7.7145493338        1.8214460733        8.8484860504
  H         6.7727490670        3.1487754300        7.2893133180
  H         6.4535689848        3.7005970462        8.9148407549
  C         9.0017092282        2.6761733151        9.2509756656
  H         8.0567238231        1.0871096493        8.0503505815
  H         7.2965734432        1.2228842021        9.6488320765
  C         8.6807351582        4.0051815773        9.9486716430
  C         9.4334627037        3.3765303905        8.0474930040
  C        10.2104752248        2.0751154541       10.0156782623
  C         9.0919491319        5.1077064914        9.2212716208
  C         8.0773096682        4.3633077325       11.1880400673
  C         9.5864485509        4.7253176375        8.0230463270
  C         9.8717665572        2.8065717552        6.8193477147
  H         9.9702850717        1.9770904437       11.0607588969
  H        10.3485794428        1.0533311439        9.6684790222
  C        11.5450710730        2.8595892963        9.9170979180
  S         8.6787005811        6.6285139293        9.9053728587
  C         8.0541127743        5.7442012634       11.2706512363
  H         7.8803446780        3.5397818410       11.8950958547
  C        10.0354404469        5.3625192240        6.9000650222
  H         9.9152019551        1.6806792945        6.6480546114
  C        10.1334020292        3.4966068185        5.6493574527
  H        11.4393255629        3.8941318081       10.2128624385
  H        11.9841016274        2.7527243976        8.8693574202
  C        12.5532107513        2.2641316566       10.9091166894
  C         7.4742442522        6.4509823652       12.4344909896
  C        10.2358450799        4.8065524290        5.6122603246
  H        10.0474837991        6.4175501115        6.9570488515
  C        10.4266069569        3.1474371902        4.3648802811
  H        13.6194790690        2.6689803265       10.8791142650
  H        12.5049863359        1.2138699183       10.8326866197
  C        12.2043945352        2.7217984073       12.3407639111
  C         7.4694228894        7.8451849923       12.7436183518
  C         7.0091301558        5.5994667726       13.6167358117
  C        10.5860245254        5.5754400815        4.3417974902
  C        10.7177679130        4.2761512888        3.5922637045
  S        10.5747919159        1.5314311969        3.6739314751
  H        13.0160767865        3.4098766308       12.6889613202
  H        11.2458631828        3.3228003889       12.2096893601
  C        11.9320482531        1.7213372295       13.4631297580
  N         7.9256413199        8.7754539093       11.7948796062
  C         7.2105597817        8.3899164306       14.0049853489
  C         6.7219344871        6.1530531528       14.8656990010
  H         6.8012331901        4.5501074304       13.4721646344
  C        11.9487293519        6.3493346986        4.4254792473
  C         9.3716957741        6.3399314506        3.8468208323
  C        11.1453184605        3.7795932900        2.3661167300
  C        11.0946600086        2.3819840680        2.2473986756
  H        12.1049115019        0.6692334361       13.0227568405
  H        10.8706079240        1.8388190672       13.7729846595
  C        12.8535893743        1.9368311477       14.6477349286
  S         7.9661352572       10.2877337955       12.5215232282
  N         7.4825418613        9.7164380349       13.9992152685
  C         6.9771654372        7.5803065430       15.1157741092
  H         6.2832370760        5.4870892506       15.5482483324
  H        11.8205865732        7.2856781785        4.9791534517
  H        12.1283176889        6.7119151419        3.4541986562
  C        13.1841781434        5.4508373476        4.8138441271
  H         8.7971624555        6.6645671946        4.7088992740
  H         9.6589665968        7.2133880708        3.2259248246
  C         8.2904988132        5.5295746625        3.1738634678
  H        11.5016442810        4.4874101698        1.6063190088
  C        11.4307543721        1.7110221420        0.9510612397
  H        13.8898458999        1.7677919002       14.3252679093
  H        12.7112502965        2.9461275163       15.0483671290
  C        12.5867940691        1.0145761518       15.8228966789
  C         6.6766699926        8.2981639638       16.3856892972
  H        12.9557448502        4.8620074742        5.6661432087
  H        13.4342909949        4.7915229486        3.9843948964
  C        14.4789419842        6.2005700158        4.9684909621
  H         7.8295243149        4.7612094602        3.8442449293
  H         8.6958297846        5.1246517754        2.2727829230
  C         7.1438865645        6.3487545549        2.6278907001
  C        11.6216319584        0.3258184995        0.8135407887
  C        11.6979472779        2.5153982502       -0.3207258335
  H        13.3504774323        0.2528529844       15.8570118807
  H        11.6537853592        0.4647834129       15.6891744064
  C        12.6377358812        1.8128681796       17.2035106810
  H         6.9532531396        9.3474221322       16.3083747818
  C         6.3697206875        7.9062173445       17.6646281082
  H        14.1649158873        7.1234611357        5.4404242929
  H        14.9834530491        6.4138099058        4.0903302309
  C        15.4380966896        5.4772211955        5.8946205718
  H         6.8035983030        7.1392190462        3.3247955079
  H         7.5088125137        6.9090467816        1.7844878657
  C         5.9663113644        5.4271168850        2.2052406798
  N        11.2362979582       -0.6302635769        1.7615090515
  C        11.9227886751       -0.3146352100       -0.3881103272
  C        12.0278439457        1.8856323167       -1.5325899262
  H        11.4762197390        3.5335106748       -0.4493661411
  H        13.5780646521        2.3631409569       17.4653852882
  H        12.6001993530        1.2138111531       18.1310339173
  H        11.8147388832        2.4953721767       17.2179163604
  S         6.0165004498        6.2868726374       18.2714375859
  C         6.4927875186        8.8642647513       18.7572755458
  H        15.0502725557        5.4546703561        6.9326344283
  H        15.5182670839        4.4695224307        5.4966122326
  C        16.8721747100        5.9708787961        5.8552320277
  H         5.5322664538        4.8047126567        3.0365524259
  H         6.4266837812        4.7223338330        1.4807362867
  C         4.8812834885        6.2442098844        1.4499258383
  S        11.4246366238       -2.1590146975        1.0944099653
  N        11.9167161725       -1.6770744227       -0.3581905901
  C        12.2326938703        0.4020587484       -1.5239304745
  H        12.1243383228        2.5052809174       -2.3634068461
  C         5.9005734553        6.9711694319       19.8678719307
  N         6.1325642825        8.3125520128       19.9184054697
  O         6.7362653532       10.0825960791       18.5304463554
  H        17.2633906610        6.0292790111        4.8589340561
  H        16.8404254171        7.0263310096        6.1314081958
  C        17.7917954581        5.2253645896        6.8369941920
  H         5.2991789469        6.4942988347        0.5136055592
  H         4.0437626241        5.5666530933        1.1897388024
  C         4.3498338560        7.5132952189        2.1280628345
  C        12.5647117858       -0.3615693741       -2.6883134457
  S         5.4195864018        6.0789034881       21.2915294339
  C         6.1300552023        9.0322794395       21.2178006816
  H        17.3077849898        5.2863973057        7.8887737496
  H        17.8945662444        4.2264899870        6.4334550513
  C        19.1561357036        5.9068000568        7.0259081757
  H         5.1708216426        8.2214716547        2.1219715087
  H         4.2177892527        7.4376838896        3.1962581160
  C         3.1190843849        8.1415986876        1.4674506387
  H        12.2793310441       -1.3944107363       -2.6679681989
  C        13.0544133884       -0.0621126527       -3.9255906602
  H         5.3116814543        8.7546981142       21.9230516627
  H         5.9112165394       10.0460121278       20.9823477951
  C         7.5635911541        8.9895142330       21.8329741716
  H        19.6367014237        5.7074763770        7.9740392369
  H        19.0728643569        6.9813871858        7.0201948237
  C        20.0191665175        5.6979003288        5.7912309381
  H         3.0217154125        7.8481429031        0.4609912354
  H         2.1478707589        7.8283323867        1.9525363566
  C         3.0535046320        9.6907442947        1.3330775443
  S        13.7060878185        1.3558050727       -4.3589188574
  C        13.1554983050       -1.1966283683       -4.8653766137
  H         7.5658652318        8.7812170971       22.8738986778
  H         8.2532222779        9.8249370252       21.5433628562
  H         8.0225733643        8.1657324347       21.3169068085
  H        20.1472160128        4.6695136509        5.7250511664
  H        19.5001985262        6.0409091130        4.8960495952
  H        20.9993533386        6.2047044043        5.7763203631
  H         2.9828888366       10.1452161412        2.2771707213
  H         3.9656718769       10.0626282888        0.8311102636
  H         2.1941313491       10.0449756227        0.7159659253
  C        14.0756592312        0.6391590188       -5.8906867002
  N        13.8354761956       -0.7094434689       -5.9328176986
  O        12.6996215327       -2.3015786878       -4.7070509725
  S        14.7810314507        1.4931199723       -7.2966629496
  C        13.9720138973       -1.5155604350       -7.1191747015
  H        13.8938519295       -2.4858067449       -6.8224709074
  H        14.9250090516       -1.3890099479       -7.6045741230
  C        12.8994249495       -1.0937334162       -8.1444275287
  H        12.0050996706       -0.6855022527       -7.6536107169
  H        12.3940537198       -1.9273017842       -8.6195868657
  H        13.0890717325       -0.2972252839       -8.9098153191
  H        -1.1051249834       13.7136354469       16.6404258532
  C        -2.0391363938       14.1734083870       16.4466455634
  H        -1.8665080035       15.1659884171       16.1042190391
  C        -2.9099936638       14.0278295073       17.7344406635
  C        -2.6952336954       13.3880590467       15.3580586543
  C        -2.6954896059       12.7284346334       18.4518089734
  H        -2.6766975265       14.7391425127       18.5576093496
  H        -3.9857664801       14.1198225879       17.4779293838
  H        -1.9384943731       12.6559019671       15.2377489528
  H        -3.6173480812       12.9469962323       15.6695144174
  H        -2.7014786416       13.9622593766       14.4099307994
  C        -1.6840867716       12.8752277740       19.5447407339
  H        -2.1627203691       11.9991277955       17.8882526058
  H        -3.5995690105       12.1861231585       18.6670616776
  C        -2.3027475077       13.2391010657       20.9146773257
  H        -1.2021414493       11.9928847506       19.7306051375
  H        -0.9508935134       13.6094932707       19.1831700886
  C        -1.4165954122       12.7974356409       22.1871640967
  H        -3.2731373518       12.7768003154       20.9608329919
  H        -2.4895629387       14.3100036931       21.1124949416
  C        -0.0872782699       13.5826177828       22.2902991821
  H        -2.0377212001       13.0054410651       23.1142044590
  H        -1.2097880377       11.6673739077       22.0448304594
  C         1.0807607598       12.8287228961       23.0181469164
  H         0.2927357370       13.8467822829       21.3061244240
  H        -0.2578773313       14.5614123525       22.7024315444
  C         1.3949033548       11.4987748680       22.3024556990
  C         0.7701530276       12.1395960260       24.3677011985
  C         2.3122763819       13.7836112921       23.2280727454
  C         1.2548838323       10.4482137889       23.1976917467
  C         1.6694624290       11.0632334840       20.9874776873
  C         0.7837336036       10.8323023439       24.4223685551
  C         0.2533898599       12.7572423566       25.5461424289
  H         2.5649476514       14.3222573154       22.3057536284
  H         2.0773123167       14.6477803598       23.8754204868
  C         3.6469653765       13.0845687132       23.6822812935
  S         1.5483007935        8.8783816000       22.4301688428
  C         1.8526504563        9.7248810594       20.9490771588
  H         1.6891704528       11.7481046242       20.1753219803
  C         0.4365317675       10.1995348902       25.5968184223
  H         0.0909090806       13.7933290439       25.5105809363
  C        -0.0326382867       12.1548401666       26.7023250870
  H         3.9133472893       12.3608061024       22.9390935767
  H         3.4162108206       12.4574739044       24.5687867257
  C         4.8887075482       13.9780604166       24.0351887895
  C         2.1563724575        9.1176554128       19.6317878620
  C         0.0033170843       10.7717910570       26.7509445716
  H         0.3898251148        9.1706241092       25.5142202481
  C        -0.4869597509       12.5413633469       27.9382434608
  H         5.5228011308       13.2553945741       24.6109182964
  H         4.6132225298       14.7796185162       24.7945006579
  C         5.6707582452       14.7453850996       22.9217558020
  C         2.3793515805        7.6825814438       19.4378975431
  C         2.6746117907        9.9407321564       18.5502206513
  C        -0.4060596034       10.1317787392       28.0521909427
  C        -0.6861781484       11.4456283460       28.7261002332
  S        -0.8053607407       14.0447390149       28.6909969049
  H         6.4736286066       15.2190209756       23.4589001745
  H         5.0334604987       15.4576762474       22.4885800748
  C         6.1369811372       13.8292140210       21.7244265721
  N         2.0956279292        6.5933264827       20.2993354909
  C         2.7223230258        7.1522398131       18.1698537300
  C         3.0584027360        9.4443249370       17.3692494375
  H         2.6812148864       11.0166933188       18.6140112092
  C         0.7255007389        9.3258330828       28.7509863669
  C        -1.7065007803        9.2943429021       28.0211490503
  C        -1.0566547839       11.8113577036       30.0322075979
  C        -1.1820580571       13.1798940650       30.2287424783
  H         7.2181009711       13.9276355243       21.6395737467
  H         5.9111705717       12.7795193860       21.8633424784
  C         5.5454846534       14.1682545801       20.4053795713
  S         2.2627299953        5.1835293221       19.4886399461
  N         2.6059486400        5.7728702478       18.0516227883
  C         3.1103523970        7.9564451517       17.1010583507
  H         3.4919802296       10.0371724314       16.5699457286
  H         1.1155892258        8.6468076933       27.9936343374
  H         0.3330041621        8.8023148544       29.6051978003
  C         1.8263297495       10.1588987742       29.3935462411
  H        -1.5542440156        8.3962410302       27.3759392491
  H        -1.9227963215        8.9135938564       29.0174553228
  C        -2.9592880007       10.0437364160       27.6228212084
  H        -1.3641210148       11.0751169121       30.7599592267
  C        -1.5217762626       13.8876958262       31.5144110092
  H         5.7505679912       15.2069365229       20.2484193737
  H         4.4982612290       14.0734599557       20.5543453177
  C         5.9922476749       13.3013927603       19.1781587270
  C         3.4565523274        7.3555427741       15.8417816532
  H         2.3021052347       10.8301425756       28.6445823358
  H         1.4212640265       10.8719022994       30.1163145113
  C         2.8128299831        9.3496359741       30.1176879568
  H        -2.7126267932       10.7940065084       26.8799968411
  H        -3.2819820342       10.5560361570       28.5236523289
  C        -4.0437170798        9.1407667141       27.1978744968
  C        -1.6485664182       15.2505990208       31.7134651397
  C        -1.5480610690       13.1519943249       32.7539654580
  H         5.4616426569       12.4032652570       19.3051809776
  H         5.3989065281       13.7254783096       18.3066725534
  C         7.5513830598       13.3495930248       18.8749459308
  H         3.4458244510        6.2610143156       15.9254293871
  C         3.6229126850        7.8917291858       14.5546274692
  H         3.0941691999        8.6079244172       29.3727749146
  H         2.2665153194        8.9470381658       30.9739236673
  C         4.0841495574       10.0368641665       30.6356021467
  H        -3.5878124303        8.5216854517       26.4443742653
  H        -4.1755027992        8.5572461366       28.0323379507
  C        -5.3944878520        9.7991362409       26.7317017339
  N        -1.2643538357       16.2012976268       30.7754642501
  C        -1.8658367262       15.8676813488       32.9594602889
  C        -1.9535679542       13.6799311323       33.9696525717
  H        -1.6000594386       12.0798368562       32.6188920654
  H         7.9053875959       14.2163020330       18.4526969052
  H         8.2784972598       13.1286550823       19.6612944794
  H         7.8166079438       12.6355708670       18.0995078405
  S         3.8849436633        9.4833940509       14.0897289077
  C         3.6873159057        6.9739480897       13.4094614087
  H         4.0544631754       11.0203486786       30.1318190679
  H         4.0138138041       10.4129794509       31.6510309065
  C         5.3135139815        9.1513752015       30.3843122176
  H        -5.5566662634       10.6685919925       27.4087461110
  H        -6.2779946174        9.2072425840       26.9455898639
  C        -5.2925138976       10.0860970273       25.2171028874
  S        -1.3705584278       17.6859647663       31.3969453761
  N        -1.8487771872       17.2561020426       32.8937799982
  C        -2.0461152063       15.1492159047       34.1510238425
  H        -2.2881407635       13.0047674674       34.7241237270
  C         4.0454964163        8.8857329441       12.3850089870
  N         3.8882823321        7.5609210605       12.2201213917
  O         3.6560175942        5.7628484811       13.5579000600
  H         6.2958516244        9.7066550673       30.4762513502
  H         5.2395784107        8.8836094267       29.3183845213
  C         5.3580751771        7.8326833298       31.1997331274
  H        -4.4435030162       10.6859041129       25.1754515018
  H        -5.2179831714        9.0910749844       24.6632612180
  C        -6.4474128767       11.0267791313       24.8052834824
  C        -2.4787899752       15.7750389252       35.3371229518
  S         4.3389004841        9.8556400674       11.0050511667
  C         3.8684852028        6.8218452421       10.9585450316
  H         5.4868071740        7.9489781994       32.2553815678
  H         4.3796280426        7.3199861971       31.1150089926
  C         6.6459459263        7.0814952700       30.8322871820
  H        -6.1857317271       11.5081799596       23.7606851765
  H        -6.5580210490       11.8610561420       25.5202747223
  C        -7.8222357759       10.3363279552       24.6847658778
  H        -2.2938889545       16.8305333033       35.3100722454
  C        -3.1244202254       15.2285148391       36.4907985215
  H         4.7701878452        7.0081315384       10.3462416032
  H         3.8849670362        5.7685223291       11.1527553041
  C         2.5767141853        7.0626101683       10.1648417150
  H         6.9418421770        6.3224922941       31.5757197826
  H         7.5005737073        7.8054849811       30.7597672222
  C         6.6940229371        6.4735680510       29.4173793139
  H        -8.2257020049       10.5853471655       23.7049319583
  H        -7.6944070478        9.2506299738       24.6510884138
  C        -8.7750370429       10.8438396042       25.7882357349
  S        -3.7222877262       13.6058010670       36.6921433992
  C        -3.3871437777       16.1728967990       37.6175226039
  H         1.9367787139        6.1586781911        9.8307474690
  H         1.9293761606        7.7620732144       10.7226863880
  H         2.7496548648        7.4445259783        9.1034059234
  H         5.8251376619        5.9824516886       28.9882671113
  H         7.4797015327        5.7056970665       29.4833515244
  H         6.8581246745        7.2942656492       28.7265547008
  H        -9.8141020855       10.5711375977       25.6028364018
  H        -8.7590721758       11.9007804447       26.0579628383
  H        -8.7137092783       10.3144343170       26.7467099000
  C        -4.3995355851       14.2559909304       38.2484575389
  N        -4.1825550364       15.5357833988       38.5263250189
  O        -3.0010560087       17.3459016058       37.6396009993
  S        -5.3345344990       13.3213044200       39.3916559661
  C        -4.3707150373       16.1602438019       39.7809284823
  H        -4.3884720505       17.2373627769       39.5742204422
  H        -5.3791624640       15.9133480732       40.1607946493
  C        -3.2187409894       15.8054565339       40.7704641907
  H        -2.9842152321       16.5739104658       41.4912621998
  H        -3.5361033982       14.9512675827       41.2954872037
  H        -2.3656018435       15.4665528958       40.1961534064
