352
i=
  H         4.8253166083        2.3894758545       12.5767381627
  C         3.9012714869        2.9000605050       12.4152177070
  H         4.2122176319        3.8977952984       12.4804859102
  C         3.2506554247        2.6309611438       11.1085145530
  C         3.0259576381        2.5608835870       13.6566302501
  C         4.2015635502        2.7693896178        9.9089403531
  H         2.5665715751        3.4748511144       11.0389346297
  H         2.7897477984        1.6592947743       11.0779650179
  H         2.2587101977        1.8462836588       13.3362582640
  H         2.6684890823        3.5294524463       14.0109570841
  H         3.5351301601        2.1174541331       14.5064324101
  C         5.1407329902        1.5967231614        9.6994519977
  H         3.7089510372        3.0987355618        9.0033788863
  H         4.7464249732        3.6958098802       10.0416733712
  C         6.0915057982        1.8890168285        8.4648854700
  H         4.5127777581        0.7976978550        9.2968537208
  H         5.6666737479        1.3271473920       10.6575809599
  C         7.2562920849        2.9504231425        8.6533228594
  H         5.4310445114        2.1319301064        7.6468407615
  H         6.6098515635        0.9330511685        8.2214976267
  C         8.6191575851        2.3417276257        8.9932147436
  H         7.3758039352        3.6205892133        7.7757758313
  H         6.9836012210        3.6425135492        9.4677987165
  C         9.7520027186        3.4097373267        9.2056661565
  H         8.8794896761        1.4946073181        8.3740585626
  H         8.4812892840        1.8121734131        9.9228932565
  C         9.3333478927        4.7161627691        9.8677293427
  C        10.0460446366        4.1332627639        7.9336572250
  C        11.0414563912        2.8233680915        9.8782531845
  C         9.3578394002        5.8522802968        9.1171361867
  C         8.9883714790        5.1499515216       11.1825765551
  C         9.8369460982        5.4568947577        7.8761851001
  C        10.5331830050        3.4451892884        6.8198437424
  H        10.8025462964        2.4137159088       10.9058172256
  H        11.4288618425        1.9204597433        9.3384134995
  C        12.2348896224        3.8676155804        9.9838631856
  S         8.8087688797        7.2653682961        9.7894189820
  C         8.7022372142        6.4769540875       11.2865872920
  H         9.0616536777        4.3957452831       11.9335131096
  C        10.2048940613        6.0277457673        6.7141831119
  H        10.6825731446        2.3860825103        6.8068037544
  C        10.7671381485        4.0116155276        5.6672563734
  H        11.8032851227        4.7620633866       10.5339059654
  H        12.6259189490        4.1361971554        8.9884166181
  C        13.3535004238        3.3376218725       10.8783414664
  C         8.1929482900        7.1604602600       12.5180093915
  C        10.6498469999        5.3739175711        5.5207305481
  H        10.0583203313        7.0897221608        6.6395467881
  C        11.2216173279        3.6086450831        4.4017024480
  H        14.3279377840        3.7598955155       10.4546214442
  H        13.5400441465        2.2474504403       10.8087761117
  C        13.2298095833        3.7104664755       12.3457666490
  C         8.0218588154        8.5615892103       12.7887858743
  C         7.6336363712        6.2753495200       13.5581403062
  C        10.9827577158        5.9764949376        4.1785928397
  C        11.3586488066        4.7130351012        3.5321770122
  S        11.5349781680        2.0726794219        3.6871950424
  H        14.1577964439        4.1664176648       12.7561858864
  H        12.5279879625        4.5309506447       12.4392674041
  C        12.8147477027        2.5865434347       13.2703552990
  N         8.2625645487        9.5807601206       11.9388271332
  C         7.6652911108        9.0142040555       14.0432484746
  C         7.2486266379        6.6876351152       14.7695608100
  H         7.4771546682        5.2584843042       13.2417177244
  C        12.2765884610        6.8970792412        4.2903341746
  C         9.7899210845        6.6549718986        3.5688037369
  C        11.7984626888        4.2776340246        2.2270006266
  C        11.9536301699        2.8685532310        2.1992733460
  H        13.2829802986        1.6936733235       12.9346782448
  H        11.7065870178        2.3907292625       13.1836588837
  C        13.1448324551        2.8493202678       14.7539188702
  S         8.1121627131       11.0340185727       12.7018516219
  N         7.6835117975       10.4043129271       14.0959099854
  C         7.4156269737        8.1322591694       15.1434852333
  H         6.9150093717        5.9309053921       15.4680981034
  H        12.1499729088        7.6507290643        5.0626436701
  H        12.3689675923        7.3786487485        3.3670415098
  C        13.5669865910        6.0623175500        4.6352211003
  H         9.2223698143        7.1418172861        4.3181067984
  H        10.1164708982        7.3542951892        2.7951849860
  C         8.7886244517        5.6032275698        3.0288931231
  H        11.7860214543        4.9410230391        1.3560047425
  C        12.2783561195        2.0253607278        0.9525656814
  H        14.1911677501        3.0609221153       14.8490735796
  H        12.5726964905        3.6942984669       14.9847180013
  C        12.7252685158        1.7021299404       15.6918119058
  C         7.1593774335        8.7792550222       16.3895978042
  H        13.2949514685        5.3765008997        5.4067417198
  H        13.8397830448        5.5091351023        3.7891543977
  C        14.7593762603        6.8506352430        5.0964363878
  H         8.5093947541        4.8150951438        3.7202827950
  H         9.1605634055        5.1150750809        2.2203386191
  C         7.5111235842        6.3182538488        2.5153921819
  C        12.3387279761        0.5833892529        0.8460487249
  C        12.3029278189        2.6868558948       -0.3883826841
  H        13.3183563399        0.9112977111       15.3889198859
  H        11.6699788435        1.4515040477       15.4672793506
  C        12.9660687283        1.9564585727       17.1903417791
  H         7.3262310159        9.8257851023       16.5565363400
  C         6.7413501756        8.2025825618       17.5780646825
  H        14.5622361111        7.3353409059        6.0655639991
  H        15.0230866350        7.6926517836        4.4055209930
  C        15.8618789616        5.8069844154        5.2920384509
  H         7.4648070741        7.0573997003        3.2986892288
  H         7.6995955899        6.8359899494        1.5774154793
  C         6.3174530274        5.3731321374        2.4594158781
  N        12.0461135644       -0.2927541443        1.9116105523
  C        12.7187706134       -0.1506907212       -0.2722119885
  C        12.6664794562        1.9655768596       -1.5056017159
  H        12.2941154442        3.7847702913       -0.3381289792
  H        13.7275251856        2.8002862948       17.2649974637
  H        13.2044120457        1.1342332007       17.7536398898
  H        12.0412019980        2.3658672861       17.6278058117
  S         6.4980338561        6.5636176387       17.9625518943
  C         6.7287165542        9.1413025508       18.7651941115
  H        15.3742179092        4.9342442107        5.7529520735
  H        16.2621693022        5.4507421002        4.3364307812
  C        16.9621029459        6.3242179296        6.1539214617
  H         6.1721649888        4.9543310526        3.4363021877
  H         6.5400669099        4.4805300157        1.8408024114
  C         5.0295184668        6.0538627007        1.9138372291
  S        12.1426524388       -1.8299173793        1.4199621666
  N        12.7012836963       -1.5503338960       -0.1038966841
  C        12.9236644933        0.5025791532       -1.5215717394
  H        12.8764485458        2.5387324346       -2.4297278764
  C         6.2249349571        7.1078976371       19.5920569664
  N         6.4310032338        8.4612918289       19.8440923956
  O         6.7483784625       10.4010513306       18.6457236722
  H        17.5760257274        7.0475708780        5.6643250855
  H        16.5361307689        7.0304879661        6.9211368171
  C        17.8467736183        5.2722585294        6.7352590365
  H         4.9263280750        5.6729281925        0.9143840221
  H         4.1658101065        5.6532305972        2.4621804723
  C         5.0436532477        7.5619921162        2.1147702592
  C        13.2379678698       -0.3361920843       -2.6856261391
  S         5.7872254401        6.0109757695       20.8494792476
  C         6.5173379578        9.1007049037       21.1669941845
  H        17.2208176071        4.6336870037        7.2191943633
  H        18.4366737111        4.7604979920        5.9815059572
  C        18.7832147863        6.0675172707        7.6215185192
  H         5.4836224187        7.9817152177        1.2243518563
  H         5.5513020196        7.9647214123        2.9726007056
  C         3.6734324636        8.1816254162        2.1663139649
  H        13.0218728831       -1.3904998866       -2.5270246263
  C        13.7475510220       -0.0650482011       -3.9341494894
  H         5.7782629777        8.7555975412       21.7957833386
  H         6.3436161679       10.1538186544       21.0452855284
  C         7.8506418864        8.9164988232       21.8019170736
  H        19.0719694998        5.4840391124        8.5568905110
  H        18.4399971285        7.0497346977        7.9359934214
  C        20.1259265340        6.3521624902        6.8669621195
  H         3.0098180198        7.8754476653        1.3501905313
  H         3.3191989621        7.9332953828        3.1062326350
  C         3.9162498222        9.6981494945        2.2962687338
  S        14.4083300273        1.4095013994       -4.4724500210
  C        13.8212562447       -1.1565622861       -4.9699888751
  H         8.0121022489        9.2484453362       22.8398068308
  H         8.7069342406        9.3369498312       21.1861542658
  H         7.9299284996        7.7552337811       21.9528104454
  H        20.8748229251        6.8404837752        7.4629866581
  H        20.5101606609        5.3720966162        6.7507453663
  H        20.0223549105        6.9740756302        5.9506451868
  H         4.5776724408        9.8182528307        3.1134179620
  H         4.3835471356        9.9979644964        1.3555404925
  H         3.0425223026       10.2077803191        2.5908935685
  C        14.7301947897        0.5988580915       -6.0212396684
  N        14.3819356916       -0.7069314981       -6.0967766009
  O        13.3662811424       -2.2810539619       -4.8770843579
  S        15.7798183045        1.2177947646       -7.2724105432
  C        14.6361561739       -1.5156187283       -7.3346248935
  H        14.4091166007       -2.5082177767       -7.0929418663
  H        15.7230428463       -1.5729479435       -7.5851041173
  C        13.6500276625       -1.2332914059       -8.5379403488
  H        14.1229462295       -0.4818248040       -9.2047748361
  H        12.7865979164       -0.7885782385       -8.0795381870
  H        13.3445407184       -2.1310961561       -9.0719954603
  H        -3.8768496373       14.0737313753       16.4243168674
  C        -2.9025491735       13.5157238889       16.3037991341
  H        -3.1502940913       12.4846456230       16.4069953699
  C        -2.0720444622       14.0758017659       17.4493442713
  C        -2.1189608310       13.8634441014       14.9241570161
  C        -2.7043010640       13.6642920925       18.8698092275
  H        -1.0760101775       13.6158866048       17.5012237772
  H        -2.0234790924       15.1206534715       17.2763640317
  H        -1.0907086087       14.2533632139       15.1577302404
  H        -1.8944284829       12.9698673078       14.3593964520
  H        -2.7887779399       14.5359393773       14.2721854252
  C        -1.6546145073       13.3872811180       19.9588442374
  H        -3.2027574188       12.7590308523       18.6161986819
  H        -3.3736092359       14.4751377094       19.2352124942
  C        -2.2974126366       13.5258364475       21.3634619591
  H        -1.2287763767       12.3729181321       19.8109242408
  H        -0.8282782943       14.1574724421       19.8134532418
  C        -1.3416490472       13.0075941466       22.4621028853
  H        -3.1955091779       12.9484333066       21.3026088343
  H        -2.6277175568       14.4739815611       21.6268364577
  C        -0.0419689969       13.8067574525       22.7189464894
  H        -1.9797979457       12.8905751133       23.3210341501
  H        -1.0850996962       11.9867455518       22.0954191464
  C         1.1212344825       13.0549677620       23.4390928079
  H         0.4874692682       14.2848074589       21.8717652019
  H        -0.2304772488       14.5954467780       23.4216595263
  C         1.6475684423       11.6983832685       22.8350771717
  C         0.6678185056       12.2961929130       24.7116323397
  C         2.3969588634       13.9847475956       23.7395876012
  C         1.4197193239       10.6002502198       23.6053948442
  C         2.1095878353       11.3929482234       21.5649673199
  C         0.8315989015       10.9271328960       24.7800876254
  C         0.1578287872       12.9107805341       25.8684059196
  H         2.5197706616       14.7045138854       22.8752359125
  H         2.2148196712       14.6515803396       24.5995950911
  C         3.7294407555       13.2434179695       23.9350410221
  S         1.9725578249        9.1557589084       22.9179501813
  C         2.4293248835       10.0611266774       21.4528347799
  H         2.1984843167       12.1619609867       20.8504449619
  C         0.5127654825       10.2623248616       25.8977602923
  H        -0.1728585811       13.9010497738       25.6788818485
  C        -0.0597987541       12.2319045834       27.0327437389
  H         4.1436075477       12.8287689366       23.0402110654
  H         3.5076114217       12.3557643960       24.5429361427
  C         4.9049948321       14.0986868597       24.6020543931
  C         2.8658186212        9.4152253913       20.1298423544
  C         0.1496587575       10.8772485226       27.1022040425
  H         0.7513565906        9.2898445649       26.0048508339
  C        -0.5172729089       12.5760048215       28.3266233130
  H         5.6018085613       13.4719229605       25.0673431684
  H         4.5500106576       14.7566762957       25.3566289094
  C         5.7308552639       15.0037198310       23.6270177726
  C         2.7731304923        8.0314811283       19.7827445241
  C         3.3096034795       10.3479448567       19.0632473987
  C        -0.1450218442       10.1145426041       28.3821272230
  C        -0.5520325739       11.4456742615       29.1041102981
  S        -0.8500007110       14.0664252366       29.0734739420
  H         6.3853964770       15.7436515557       24.1169787474
  H         5.0595398664       15.5813482412       23.0270954085
  C         6.5071007720       14.0996068492       22.6279687607
  N         2.3756431060        6.9847547730       20.6544278289
  C         3.0178515518        7.6165448860       18.4758552248
  C         3.5938018331        9.9279838539       17.7636983761
  H         3.3198026201       11.4108332998       19.1772347824
  C         1.1008526415        9.4653889807       29.0097276575
  C        -1.3196993961        9.1336434006       28.3021014617
  C        -1.1347729697       11.7619807933       30.3431026722
  C        -1.2174990213       13.1419014050       30.5231499443
  H         7.5108688268       14.4411038456       22.4695262632
  H         6.5684141023       12.9681630857       23.0477077634
  C         5.9636043269       14.1330399015       21.2230747586
  S         2.6390126392        5.5789305722       19.8336705461
  N         3.0288203585        6.2609759710       18.4025459398
  C         3.4601958898        8.4547270888       17.4566071725
  H         3.8474192030       10.6055051630       17.0158130770
  H         1.5031105779        8.7919522043       28.2631874962
  H         0.7097574111        8.7125926114       29.7328631958
  C         2.1767853242       10.3142395445       29.6694066261
  H        -0.9596357423        8.5291978447       27.4617940242
  H        -1.4144527220        8.5983840096       29.2368925678
  C        -2.6489823864        9.8303421841       27.8203742330
  H        -1.3198519248       10.9132384802       31.0054184705
  C        -1.4396040933       13.8283570566       31.8294389978
  H         5.8937495143       15.1994835730       20.8601566722
  H         4.8709785598       13.7676062578       21.1079844950
  C         6.8441667525       13.4096575156       20.1355605100
  C         3.7597071584        7.8289124877       16.1970555676
  H         2.4953796146       10.8838367501       28.8470447483
  H         1.7464829871       10.9092472379       30.5010893864
  C         3.3156688682        9.4267453178       30.1455461889
  H        -2.4867866986       10.6321061996       27.0942566130
  H        -3.0184618794       10.2606325532       28.7686126638
  C        -3.7407890580        8.8374787579       27.3746686054
  C        -1.4312693412       15.1468629498       32.0573523653
  C        -1.6720764597       12.9032046372       33.0001845024
  H         7.9123798853       13.4417080550       20.3797644329
  H         6.5865515846       12.3685165451       20.1337270008
  C         6.5447343285       13.9767447536       18.6890114851
  H         3.5452832808        6.8405691468       16.0845335439
  C         4.1568743115        8.2614734992       14.9451019764
  H         3.6299953454        8.8226224073       29.2925621450
  H         2.8760178301        8.6942490494       30.8120337941
  C         4.4558191726       10.2547560569       30.7519353658
  H        -3.4144674844        8.3015697565       26.4835299983
  H        -3.7867787318        8.1486078128       28.1964566812
  C        -5.1468430842        9.5103108572       27.1639507501
  N        -1.2063640007       16.1829026274       31.1485955771
  C        -1.6929886832       15.6892026116       33.2720072145
  C        -1.9376454950       13.4393489139       34.2640564970
  H        -1.6757050223       11.8865525421       32.8112653808
  H         5.4483932906       14.0246642377       18.5170487942
  H         6.8885852696       14.9678667305       18.5909714326
  H         6.8801702936       13.2760236107       17.9500839200
  S         4.3191750762        9.8863869858       14.6139663370
  C         4.2129809914        7.3191356653       13.8185688399
  H         4.5914770384       11.1128580770       30.1430572353
  H         4.1577686835       10.5907077985       31.7488171744
  C         5.7825680686        9.3961433735       30.9566015107
  H        -5.2455972816       10.2937906191       27.9229148315
  H        -5.9900567067        8.8163375861       27.3018919294
  C        -5.2678102755       10.0670876359       25.7578975576
  S        -1.2531815460       17.6326391946       31.8555989448
  N        -1.4855930487       17.1118473400       33.3440187427
  C        -2.0426374211       14.9004947968       34.4169043154
  H        -2.0363266922       12.8727228329       35.1661428370
  C         4.5660161107        9.3190792027       12.9001424748
  N         4.4462571315        7.9913260630       12.6704750291
  O         4.1475504622        6.0922395639       13.8400432174
  H         6.5343227562       10.0817172774       31.3730235636
  H         6.2347097310        9.1668395175       29.9454701713
  C         5.6444059421        8.1605308558       31.8225210515
  H        -4.3523948927       10.6823693681       25.6231170840
  H        -5.0961629139        9.1799819299       25.0777669765
  C        -6.4362409992       11.0446356810       25.5340910613
  C        -2.3016789173       15.6124606391       35.6237547660
  S         4.8811084390       10.4175514450       11.5440584733
  C         4.5003624693        7.2938743322       11.3851135567
  H         6.4614175474        8.1430412631       32.6536166990
  H         4.6399299535        8.2134630331       32.2869427261
  C         5.7750584709        6.8825057152       31.0139563857
  H        -6.1575108260       11.7863130103       24.8285071367
  H        -6.7004132349       11.4550767479       26.5049454469
  C        -7.7545432397       10.3762325584       25.0746835036
  H        -1.8090854565       16.5096606307       35.7326319060
  C        -2.7816659099       15.2883253418       36.8638592848
  H         4.9538031586        7.7700265639       10.5408637492
  H         5.2449546574        6.4497956666       11.5412959231
  C         3.0308599278        6.9428701102       10.9197371759
  H         5.2113228131        7.1278707552       30.1123680709
  H         5.2706120770        5.9767985360       31.5689677216
  C         7.1890076902        6.5107107225       30.5859443351
  H        -7.9894177029       10.6801950001       24.0787210064
  H        -7.5516822055        9.2874123333       25.0667555221
  C        -8.8312356627       10.4175907647       26.1677689960
  S        -3.2808235151       13.6542047950       37.1832272786
  C        -2.9009383468       16.2271791836       37.9940017645
  H         2.2839266954        7.5567902707       11.4586834308
  H         2.9396613535        7.2670382199        9.8739968337
  H         2.8150827252        5.9078784592       10.9112479767
  H         7.6695613692        7.2419858153       29.9789904345
  H         7.1097325810        5.6425499937       29.8934999040
  H         7.8595457188        6.3057856697       31.4421365466
  H        -9.8409848571       10.0973047188       25.7650932317
  H        -8.8240372490       11.4423637835       26.6260452222
  H        -8.4826542019        9.7817073491       26.9201437663
  C        -3.7060849308       14.2601483988       38.8254746957
  N        -3.4682348778       15.5951205153       39.0444347295
  O        -2.5561278349       17.3973140157       37.9997499796
  S        -4.6194257220       13.3101475558       39.9222663837
  C        -3.8013874178       16.3494419007       40.2426421164
  H        -4.2018542861       17.2767067748       39.9132196719
  H        -4.5454372822       15.8257591170       40.8322829632
  C        -2.5168321574       16.7119033191       40.9433557363
  H        -1.5618867203       16.5255742215       40.4148443766
  H        -2.3810791236       17.8026446604       41.1002457818
  H        -2.3446958299       16.2316540611       41.9231791474
