352
i=
  H         3.2300874351        1.2334263866       13.1547228767
  C         2.9534290492        2.2602356882       12.7890518068
  H         3.8402367100        2.8895104058       13.0995440097
  C         2.7169414189        2.2966214111       11.2817631679
  C         1.6487567149        2.7558261924       13.3611914311
  C         4.0505078173        2.5693969543       10.5368330236
  H         2.0237777057        3.0303427674       11.0560008338
  H         2.4125561205        1.3522861644       10.9616607096
  H         1.7827139260        3.0932056190       14.4455650980
  H         0.9699955318        1.8903930438       13.1610210158
  H         1.2099513093        3.5938976979       12.8250216923
  C         4.6421315848        1.3619674041        9.9163629872
  H         3.9738092523        3.1993117420        9.6880318580
  H         4.7437747426        3.1763113993       11.2262637011
  C         5.4946139100        1.7088272141        8.7348767649
  H         3.8504531241        0.7333581170        9.5224486569
  H         5.2147647935        0.7627415311       10.6821751486
  C         6.6216372380        2.6528056516        9.0631621394
  H         4.9081281351        2.1678164119        7.8990607943
  H         5.8696469117        0.7455181005        8.3350096865
  C         7.9194764813        2.0098826366        9.4905725284
  H         6.7600059292        3.2655470965        8.1685572983
  H         6.3765664845        3.3086876627        9.8337523276
  C         9.2106996264        2.9247945429        9.6048368650
  H         8.1838934030        1.1842925344        8.8034450097
  H         7.7510550703        1.4627579862       10.4171556511
  C         8.8413510696        4.2962107731       10.2315886376
  C         9.5351592518        3.6366686872        8.3136844549
  C        10.3462948524        2.1849379730       10.2652208147
  C         8.9880633709        5.3743603527        9.3743802220
  C         8.4293859068        4.7783143203       11.4688366329
  C         9.4694761592        4.9518914101        8.1641200658
  C         9.9369932449        2.9799067685        7.1356848322
  H         9.9926102985        1.5577208112       11.0893398410
  H        10.8686863155        1.5238859106        9.5876920572
  C        11.3709869818        3.1372155080       10.9066232130
  S         8.6354918291        6.8901428118        9.9859176482
  C         8.2730698771        6.1154588341       11.4730620301
  H         8.1334268406        4.0009339313       12.2339152717
  C         9.6759885885        5.4992875976        6.9617639982
  H        10.0306108133        1.8827149078        7.2921379269
  C        10.2206625076        3.5714209978        5.9251855621
  H        10.8723962867        3.5258826642       11.7638362239
  H        11.8382891133        3.8502871089       10.1970538642
  C        12.4661028004        2.2881737860       11.5187553417
  C         7.7565442153        6.8866205795       12.6737193433
  C        10.1126293838        4.9198792268        5.7677370922
  H         9.3666459677        6.5106711428        6.8508215959
  C        10.6681838607        3.1664246032        4.7160368254
  H        13.4401920218        2.3764106449       10.9713941265
  H        12.1476703289        1.1710345956       11.5823253495
  C        12.8108272845        2.7181161803       12.9484441252
  C         7.7805204113        8.2761835865       12.8345809432
  C         7.4156204125        6.0303940878       13.8429224231
  C        10.4163130001        5.5345588183        4.4584738294
  C        10.8211183649        4.2045081719        3.8047593776
  S        11.1775982766        1.6821588651        4.0795224069
  H        13.8566585116        2.5052312325       13.1203687804
  H        12.7770581414        3.7500131192       13.1804118099
  C        12.0553773294        1.8936056937       13.9274341110
  N         8.0061154543        9.2006704131       11.8240362406
  C         7.4235703356        8.8132419908       14.0757299200
  C         7.0841996230        6.5875295738       15.0374687323
  H         7.4758623134        4.9853639979       13.7488154599
  C        11.6726019110        6.3866949516        4.6487137353
  C         9.1838847587        6.2024293656        3.7443289979
  C        11.4600213645        3.8085577559        2.6556390736
  C        11.5623147841        2.4603519277        2.5827744314
  H        12.5559026714        0.9573727855       13.7661916591
  H        11.0239346315        1.7750419072       13.5700180444
  C        12.0440556579        2.4402229958       15.3902046329
  S         8.0743027187       10.6982428026       12.4740743689
  N         7.6493057406       10.1815422365       14.0206514547
  C         7.0553033955        8.0912469342       15.2432758993
  H         6.9238565859        5.9217147929       15.8867502841
  H        11.4741949259        7.2960162665        5.1302510080
  H        12.1060777325        6.6938289387        3.7058610618
  C        12.7229380170        5.6879216794        5.5199233637
  H         8.6509785142        6.7353357462        4.6171350899
  H         9.5989159311        6.9323151602        3.0273779495
  C         8.1737299930        5.2517577209        3.0703513940
  H        11.6501199051        4.4867711987        1.8831072510
  C        11.8779321314        1.7656877727        1.2357410129
  H        11.9400160141        3.5204455815       15.2868213112
  H        11.2309569120        1.9984915137       15.9193746462
  C        13.4012817411        2.2594059404       16.0806988723
  C         6.9165250351        8.8000606054       16.4739361419
  H        12.4101107806        5.4039092580        6.5379389000
  H        13.0459732682        4.7684749448        5.0408042823
  C        14.0074484561        6.5206288946        5.6517127132
  H         7.7569806416        4.5557652836        3.7879846540
  H         8.6586786626        4.6074056770        2.3690106109
  C         7.0490357763        6.0676020064        2.4456125881
  C        11.8006899524        0.3705098790        1.1247872633
  C        12.1222806242        2.5631718963       -0.0247328842
  H        13.9841856423        3.0117116332       15.5565529699
  H        13.8940042288        1.3256741635       15.8641538831
  C        13.3253062473        2.6835258760       17.5491721776
  H         7.0263825246        9.8598161886       16.3824409826
  C         6.5417086024        8.3426549592       17.7243675900
  H        13.7460828009        7.3586807896        6.3251045743
  H        14.1924154846        6.9865456073        4.6539308533
  C        15.0188171964        5.5078856808        6.2240642163
  H         6.4113788356        6.4401914120        3.2608526387
  H         7.4765226573        6.8134295686        1.7785185911
  C         6.1265851900        5.1610781749        1.6211460477
  N        11.5709780203       -0.5932180582        2.1442027611
  C        11.9948663479       -0.2527299484       -0.1052636228
  C        12.2702131092        1.9129552107       -1.2595011997
  H        12.0506026297        3.6368395916        0.0022126229
  H        13.4830337091        1.9472827945       18.3103395994
  H        12.2968390024        3.1650216644       17.7203560530
  H        14.1513337833        3.4728672386       17.6946494024
  S         6.1911265138        6.7132522187       18.1868606106
  C         6.4566419977        9.3833399936       18.7794781359
  H        14.4997667473        4.9306232151        7.0945960926
  H        15.1513646401        4.8577369635        5.4025417638
  C        16.3465587529        6.1947115448        6.7453116026
  H         6.0711935776        4.2326333364        2.0291276485
  H         6.4774421706        5.0906802555        0.5960690597
  C         4.7131063366        5.7893989849        1.5096616673
  S        11.5371049708       -2.0310079182        1.4465621648
  N        12.0397774614       -1.6316980858       -0.0085220328
  C        12.2600727120        0.4535415937       -1.3192693319
  H        12.2816639756        2.4906161149       -2.2245673629
  C         6.0444287343        7.4338002793       19.7894016479
  N         6.1630484492        8.8158975414       19.9243869571
  O         6.8442820230       10.5333661133       18.6291886585
  H        16.4401010010        7.1825861049        6.3767732294
  H        16.2923973809        6.3452096762        7.8280818107
  C        17.6093309172        5.4310257744        6.3334569078
  H         3.9956443059        4.9858297240        1.3412531805
  H         4.4231116424        6.1689325815        2.4870015223
  C         4.5538484178        6.7788729131        0.3544046965
  C        12.6598344816       -0.2655161479       -2.4746555488
  S         5.6886923145        6.5909577441       21.2762891579
  C         6.3821175887        9.5223627831       21.1248908313
  H        17.5909298535        4.3567955880        6.5249398788
  H        17.6967395858        5.4715614856        5.1940426806
  C        18.9157684034        5.8880052434        7.0941310210
  H         4.1622466632        6.2087303147       -0.4334371174
  H         5.5506181666        7.1192231013        0.0169840789
  C         3.5015057226        7.8664312872        0.6339747162
  H        12.6427080032       -1.3197694519       -2.3045056327
  C        13.1079974985       -0.0339677379       -3.7485236287
  H         5.5563320374        9.4951483360       21.8421112613
  H         6.3792088765       10.5776885048       20.8933093299
  C         7.6721448643        9.0662904935       21.7765598055
  H        18.9867349022        5.6047832146        8.1768774182
  H        18.8485446829        6.9820990786        7.3029015712
  C        20.2031678954        5.3529661766        6.4350885496
  H         3.0366265516        8.1041842430       -0.3528346897
  H         2.6724516188        7.5138604134        1.2603970738
  C         4.0402257945        9.1575833641        1.3117908305
  S        13.7667657622        1.4175763736       -4.3861775846
  C        13.1166841764       -1.1994348051       -4.6865750143
  H         7.6716238131        9.3599245055       22.8343486876
  H         8.5186122642        9.6086751275       21.4990051535
  H         7.9013500084        8.0508465198       21.8142906373
  H        20.4871627629        6.0383680303        5.6129393992
  H        20.9704234805        5.4828109446        7.2187688507
  H        20.1455519326        4.3442955083        6.0680774090
  H         4.5723350765        9.8944458067        0.7088016494
  H         3.3422874127        9.6282246611        2.0112934069
  H         4.8340055196        8.8326566555        2.0372740307
  C        13.9737280395        0.6099803564       -5.9193654227
  N        13.6619851231       -0.7060586082       -5.8697403997
  O        12.7521410692       -2.3334407537       -4.3722735129
  S        14.9918635225        1.1439309943       -7.2856277124
  C        13.6350015639       -1.6017207406       -7.0952965320
  H        13.7532021168       -2.6495622666       -6.7997189490
  H        14.5031790644       -1.3976280622       -7.7460163132
  C        12.3147237958       -1.5690946395       -7.8565884273
  H        12.2262750181       -0.6199392095       -8.2885436414
  H        11.4929560469       -1.6479870293       -7.2236039877
  H        12.3581912820       -2.3547052799       -8.6015862136
  H        -3.1210405710       15.1734052189       16.4595756787
  C        -3.0221159358       14.1147764883       16.3872593702
  H        -4.0504892278       13.6439644093       16.5036975644
  C        -1.9929729871       13.7681017554       17.4737298033
  C        -2.4459097552       13.7467536361       14.9643318390
  C        -2.5341899508       14.0863790371       18.9103434046
  H        -1.6469535895       12.8249586838       17.2767110091
  H        -1.1910998763       14.4615278232       17.2386307462
  H        -1.5492512009       14.2128904986       14.6177955341
  H        -2.3512336988       12.6232392367       14.7731187000
  H        -3.2425366789       14.1333227469       14.2959593179
  C        -1.6375508082       13.4276466220       19.9363762175
  H        -3.5481218666       13.7716575059       18.9906106551
  H        -2.6187905020       15.1943380154       19.0032525284
  C        -2.0583312058       13.6277889898       21.4443174553
  H        -1.6245693326       12.3922942571       19.7482755240
  H        -0.5323358707       13.6619565793       19.7649019528
  C        -1.0300902002       13.0232602799       22.4052784939
  H        -3.0401879171       13.2123931510       21.5986898435
  H        -2.0529668424       14.6519113761       21.7026905789
  C         0.1923587760       13.9096049480       22.7170117398
  H        -1.5637790113       12.8633718631       23.3110793696
  H        -0.7819635158       12.0987944421       21.9391061739
  C         1.3167992127       13.2002162144       23.3673565761
  H         0.6254776930       14.3305743387       21.8068534108
  H        -0.1710963714       14.6657486075       23.4206743449
  C         1.7094409199       11.8610909671       22.5990037977
  C         0.9432978640       12.4023941284       24.5646296417
  C         2.5982823400       14.1013671436       23.4941286409
  C         1.3836923812       10.7423745882       23.3691660411
  C         2.0970982398       11.4602871534       21.3066173618
  C         0.9683612739       11.0709099297       24.6348141857
  C         0.5126993879       13.0531460249       25.7500921240
  H         2.6843290041       14.3814146735       22.4579583917
  H         2.4179096241       15.0235914704       24.1087145089
  C         3.8987683897       13.3675518198       23.9395592550
  S         1.6053203254        9.2426001859       22.6003436407
  C         2.1415835743       10.0945928716       21.1913719794
  H         2.2055385901       12.2824172893       20.6008535464
  C         0.5263464024       10.4901760663       25.8375544169
  H         0.7019513678       14.1084020419       25.7808755271
  C         0.1505727276       12.4615445718       26.9293124838
  H         4.1583118654       12.6035258626       23.2382811971
  H         3.5648708382       12.9242784221       24.8739141633
  C         5.1304594237       14.2747194717       24.1953527691
  C         2.4105430488        9.4000464154       19.8599954368
  C         0.1842254902       11.0948423310       27.0235018903
  H         0.4303272926        9.3847169421       25.8788853377
  C        -0.3564251959       12.8534316867       28.1341040160
  H         5.9524778208       13.6742522121       24.5665871487
  H         4.8175950643       14.9258071723       25.0220545641
  C         5.6869886430       15.0376700847       23.0454434014
  C         2.5482215927        7.9816264514       19.7199223174
  C         2.8653073872       10.2393822583       18.6418563741
  C        -0.2151700735       10.3617286280       28.1786579947
  C        -0.5351802723       11.7288572885       28.8994229477
  S        -0.7147722755       14.3464571803       28.9105122387
  H         6.1796088581       15.8902174512       23.4048083701
  H         4.9345767224       15.4640245384       22.4888943829
  C         6.6077070322       14.2617824529       22.0363243013
  N         2.2157325550        6.9581405232       20.6504379479
  C         2.8429100914        7.4042895389       18.5004433750
  C         3.0539525559        9.6615087347       17.4498515682
  H         2.8836617732       11.3321210023       18.7582984411
  C         0.8475269229        9.5432254581       28.8872455096
  C        -1.5402068896        9.5225139098       28.0011179858
  C        -1.0054943743       12.0688228349       30.1714946016
  C        -1.0007261471       13.4398339054       30.3224437355
  H         7.5516675348       14.6886056462       21.9388330685
  H         6.8294588655       13.3153326640       22.4124128807
  C         5.9018681592       14.0717075318       20.5952844301
  S         2.3569533040        5.5334507372       19.9463504629
  N         2.8287367755        6.0226883149       18.4781481457
  C         3.0709381507        8.1826326018       17.3826622807
  H         3.2692928802       10.3040426304       16.5771231547
  H         1.3220163803        8.7186866800       28.2962426449
  H         0.4800307416        8.9510800417       29.7445796253
  C         2.1226792052       10.2991174314       29.2724869931
  H        -1.2700277897        8.7787212208       27.2944928612
  H        -1.5925294431        8.8973540382       28.9013031476
  C        -2.8639813859       10.1873108411       27.6557808565
  H        -1.1728949045       11.2861111716       30.8820852901
  C        -1.5085277722       14.0909967177       31.6392878555
  H         5.4267382861       14.9836352206       20.3200096032
  H         5.1940886151       13.2335977143       20.6310349732
  C         7.0209010030       13.7067568489       19.6440777658
  C         3.3193944998        7.4362856633       16.1377197493
  H         2.5166377167       10.6237659799       28.3527660165
  H         1.9334671092       11.0811437216       29.9563315310
  C         3.1199270239        9.3801252858       29.8114687153
  H        -2.7587801230       11.1105030970       27.0796857626
  H        -3.1600800049       10.4838930483       28.6091807137
  C        -3.9145685889        9.2157378910       27.1268770765
  C        -1.5196671533       15.4776355169       31.8833518702
  C        -1.9845943275       13.2051498205       32.7668180077
  H         7.7857554733       14.5689706623       19.7566061506
  H         7.5508351562       12.8036333626       19.8450565167
  C         6.6346815663       13.6312239687       18.1782389355
  H         3.2322390111        6.4029305786       16.1809118584
  C         3.6477090683        7.7712899345       14.8564300920
  H         3.4819711917        8.8087846123       28.9438403756
  H         2.6283402020        8.5875112170       30.4295049682
  C         4.3855054348        9.9943789019       30.4408694162
  H        -3.6763858107        8.8404429529       26.1903794190
  H        -4.0681664619        8.3474334931       27.7952463362
  C        -5.1994787860       10.0221901103       27.1171542698
  N        -1.3398651157       16.4485107674       30.8833006388
  C        -1.8761127971       16.0499193126       33.0663687169
  C        -2.2142582988       13.7998799343       34.0108932943
  H        -2.1047759602       12.1411649480       32.6263071640
  H         7.5558427595       13.4046707097       17.5742218431
  H         5.9341013705       12.8271437030       17.9460217761
  H         6.2128476619       14.4957474300       17.7851224523
  S         3.9310508029        9.3692920526       14.2573022827
  C         3.6987878839        6.6395299068       13.8675594631
  H         4.5566286976       10.9115930735       29.8932836688
  H         4.1959985253       10.2092907319       31.4534358713
  C         5.7006722243        9.2032068760       30.3799502981
  H        -5.1888184341       10.8764900585       27.7968830268
  H        -5.9159563378        9.3436117675       27.6124096926
  C        -5.6807709477       10.3362374698       25.6788799894
  S        -1.2836692155       17.9178720371       31.5121139762
  N        -1.7969245195       17.4879759563       33.0133979902
  C        -2.2208698447       15.2903899366       34.2208082981
  H        -2.2815128518       13.1594538830       34.8602328625
  C         4.1881167483        8.4961494737       12.7082887170
  N         3.9865321476        7.1276779424       12.6394255704
  O         3.4819057099        5.4343918036       14.1132447763
  H         6.4820496335        9.8945865057       30.6657630020
  H         6.0980565225        8.9487857143       29.3736421516
  C         5.6216025979        7.8935084714       31.1773313786
  H        -5.1806348916       11.1622443727       25.1995178936
  H        -5.5323874512        9.4923389659       25.0530614839
  C        -7.1410101657       10.8214683251       25.6535423988
  C        -2.4722250673       16.0235047316       35.4519366605
  S         4.6874760947        9.3378458921       11.2558265028
  C         4.1031409534        6.3295196031       11.4657543166
  H         6.0006598158        8.2107125245       32.1090032893
  H         4.6004516188        7.4263107303       31.3205081490
  C         6.5147298688        6.7585012702       30.5481174364
  H        -7.2883836578       11.5109704107       24.7766774461
  H        -7.3716913799       11.4857637923       26.5393770303
  C        -8.0827341431        9.6105750911       25.4237899520
  H        -2.0160389641       16.9629298588       35.4615165223
  C        -3.1061660297       15.7161239568       36.5838869892
  H         4.8628642425        6.6012595263       10.7137963039
  H         4.5357754551        5.2966253004       11.7138391304
  C         2.7012102056        6.1859369850       10.8381473491
  H         7.5725851231        6.9771379642       30.5158513685
  H         6.2543266738        6.5406605544       29.4864332997
  C         6.3716797208        5.4903061297       31.4315148245
  H        -7.7773106819        9.1387640677       24.4767497922
  H        -7.9362832761        8.9539681773       26.3111102045
  C        -9.5440312883        9.9223746681       25.4450600605
  S        -3.7284017965       14.1547183191       36.9118691055
  C        -3.2906012623       16.7351799608       37.6210771596
  H         2.0871211064        5.7063098478       11.6339673016
  H         2.3507976911        7.2669196164       10.4968301178
  H         2.6895942206        5.5455994264        9.9200093472
  H         7.1258883118        4.8662138624       31.0805803486
  H         5.4078978368        5.0078699493       31.5456433961
  H         6.5578883781        5.8273898648       32.4883138054
  H        -9.7454246253       10.4354624404       24.5220209452
  H        -9.7629004833       10.5689092432       26.3043838198
  H       -10.2431730746        9.1472602966       25.7204347319
  C        -4.1550457380       14.8891313543       38.4963976130
  N        -3.9235036653       16.2019902509       38.6766799991
  O        -3.0219971184       17.9296296312       37.5450988315
  S        -4.6670843625       13.9265462108       39.8139681715
  C        -4.1720001692       16.8783534557       39.8695474339
  H        -4.2875945932       17.9831368813       39.7401978486
  H        -4.9819696745       16.4984581022       40.4184554773
  C        -2.9206125926       16.7140534242       40.7014361397
  H        -2.8751839670       15.8091110076       41.2276576872
  H        -2.0307217565       16.9001457281       40.0840309094
  H        -2.9543053039       17.5689530429       41.3237469984
