352
i=
  H         4.6835256634        2.0882271449       13.0151828185
  C         3.7039134198        2.6518937561       13.0790011864
  H         4.1014409877        3.7128984288       13.1790606865
  C         2.8283718375        2.4546383047       11.8617352518
  C         2.9543091895        2.3708721844       14.3980802435
  C         3.5219698571        2.7688688071       10.5380624572
  H         1.9127806574        3.1214976940       12.1177098122
  H         2.3766198875        1.4953813803       11.8797797808
  H         2.5348781356        1.3696946828       14.4416324915
  H         2.2631748007        3.1682477840       14.4957309417
  H         3.6494473020        2.4090019118       15.2824072409
  C         4.2967570838        1.5466781523       10.0347155884
  H         2.7736176688        3.0916537325        9.7433664618
  H         4.1860033117        3.6304270807       10.6541940557
  C         5.1123531635        1.7380426122        8.7078561825
  H         3.5991130405        0.7277787561        9.8119828468
  H         4.9384632349        1.2217387024       10.8668780100
  C         6.4403675989        2.5401238659        8.8605701171
  H         4.4709800663        2.2414920897        8.0224019660
  H         5.4247716824        0.7409274993        8.2960499841
  C         7.6814261194        1.7038994691        9.2422426651
  H         6.5014937324        3.2334957425        8.0864361307
  H         6.3369367692        3.1298653077        9.7647151834
  C         8.9184774437        2.6631658100        9.3027147041
  H         7.8690935340        0.9938952947        8.4430599641
  H         7.5833356254        1.1554369025       10.2442036569
  C         8.5772760451        4.0101182437       10.0110010639
  C         9.2757781164        3.4119406875        8.0754797193
  C        10.0542427581        1.9306861183        9.9915651322
  C         8.7125454615        5.1149371376        9.1851917575
  C         8.2207085625        4.3679306457       11.2871895254
  C         9.1522242704        4.7461047492        7.9445697814
  C         9.7644049012        2.7810629585        6.9297193586
  H         9.6283614165        1.5529306898       10.9014383299
  H        10.4018013698        1.0411491087        9.4948329169
  C        11.3730501257        2.6706868098       10.2230611008
  S         8.3365758187        6.5829108255        9.8832828617
  C         7.9917457319        5.7225819881       11.3394341932
  H         8.0948052377        3.5939123008       12.0055296834
  C         9.5120028099        5.3587745187        6.7916005308
  H         9.8235495533        1.6991464745        6.9190422927
  C         9.9979580954        3.4704257842        5.7764759665
  H        11.2166230512        3.6909387154       10.5986214439
  H        11.9483399333        2.7843669803        9.3008208239
  C        12.2876922685        2.0665104106       11.3058138110
  C         7.5242332043        6.3654923899       12.6076621491
  C         9.9746882088        4.8205602811        5.6449119391
  H         9.3566017840        6.3947975532        6.8050029795
  C        10.5253054768        3.1607028385        4.5610187158
  H        13.2230024160        2.7171257004       11.1663129424
  H        12.6555046339        1.0060995180       11.0875817804
  C        11.6330555081        2.1750780901       12.6702096847
  C         7.6053460113        7.7423305055       12.9343453174
  C         6.9249310172        5.5426379340       13.7158428968
  C        10.4582114107        5.5479978290        4.4623748010
  C        10.7991403944        4.2702433181        3.7695781023
  S        10.8443331561        1.6777051232        3.7988109633
  H        10.7965580780        2.8622046440       12.6778667425
  H        11.2101712956        1.1444807506       12.8520914260
  C        12.7408008218        2.6231077710       13.7086636407
  N         8.0392277557        8.7709881934       12.0498744498
  C         7.4383924509        8.2436383299       14.2064387678
  C         6.6250044504        6.0994296535       14.9426203536
  H         6.6645016286        4.5300828216       13.4240578848
  C        11.6722913204        6.4180626754        4.6838028434
  C         9.4032320642        6.3386452008        3.7731410454
  C        11.4317026453        3.8845541613        2.5797925574
  C        11.3280269864        2.5289225553        2.4057090211
  H        12.4003973196        3.4528960233       14.3750502805
  H        13.6878818519        2.8692519741       13.2485584076
  C        13.0333005349        1.5000679845       14.6832282793
  S         8.1653931720       10.2195832668       12.7626982696
  N         7.7209580042        9.6279006006       14.2245097057
  C         6.9962952580        7.5004710861       15.2943893433
  H         6.0661412231        5.4404128549       15.6523236055
  H        11.3553806173        7.0158994779        5.5580147585
  H        11.7997196570        7.0969031103        3.7979565150
  C        12.8667504454        5.6350053305        5.1392877122
  H         9.0420964934        7.1256343554        4.4524297846
  H         9.8468938485        6.8034163291        2.8318913999
  C         8.2262396769        5.5116908510        3.2736491314
  H        11.7654964547        4.6830602784        1.8970442765
  C        11.6001099046        1.7847630640        1.1226734629
  H        12.1234312162        1.0126898421       14.8998444888
  H        13.7498010017        0.7456231393       14.2352436774
  C        13.5869946549        2.0495184867       16.0515701375
  C         6.9700401391        8.1027877181       16.5911248354
  H        12.6221779396        4.9338976949        5.9321219572
  H        13.2048199399        5.0140229227        4.2742946889
  C        14.1974023492        6.4489205686        5.4519710451
  H         7.8451978763        5.0458304017        4.1963008339
  H         8.7336691403        4.8440415550        2.5945063141
  C         7.1417968124        6.3685529388        2.5948908940
  C        11.6834421248        0.3853536287        0.9857397091
  C        11.8302555988        2.6329513093       -0.1013615494
  H        13.9803686454        3.0832460477       15.9835329092
  H        14.4282637308        1.5319179422       16.3935824462
  C        12.5254220443        2.0726753623       17.1384842116
  H         7.1894085533        9.1766740303       16.5936954605
  C         6.5376601878        7.5937306245       17.8312214431
  H        14.0542715643        6.9370705383        6.3241360725
  H        14.3572180069        7.2021431683        4.7407019395
  C        15.4279916602        5.6868018770        5.2641512693
  H         6.5989895566        6.9823959897        3.3101491838
  H         7.5743260301        7.0821757911        1.8953446777
  C         6.1752482920        5.5878642151        1.7770460071
  N        11.5059328774       -0.5991525472        1.9309366847
  C        11.9951203728       -0.1404558168       -0.2439558327
  C        12.0716594685        2.0726019832       -1.3616631086
  H        11.6913991796        3.7235766444       -0.0818601465
  H        12.7629070477        2.5353070425       18.1346978227
  H        12.1809528450        1.0719177169       17.3285736821
  H        11.6239805952        2.5933290302       16.7401972084
  S         6.1429929238        6.0262918531       18.2680002729
  C         6.4737787595        8.6120378623       18.9444948766
  H        15.2339854785        4.6613354926        5.0217970399
  H        15.9977300745        6.1688459121        4.4960350918
  C        16.1397656427        5.7538985553        6.6253337357
  H         5.5813779983        4.8906524446        2.4096375341
  H         6.8176544585        4.9901213321        1.1107087514
  C         5.2251522514        6.4003256312        0.9111376638
  S        11.5811825946       -2.0578685768        1.2234395522
  N        12.1365148431       -1.5168039173       -0.2264174636
  C        12.2129774286        0.6078616783       -1.4303534425
  H        12.3081345350        2.7324099160       -2.1752809348
  C         6.0921521516        6.5637390126       19.8408087546
  N         6.1228387035        7.9667336904       20.0498618127
  O         6.5306801233        9.8563529090       18.8043308794
  H        16.3098328760        6.8497142549        6.8874457374
  H        15.4860254131        5.2946679360        7.3486471645
  C        17.4829682915        4.9842478392        6.5485422730
  H         5.7848721332        6.8540997525        0.0940182416
  H         4.5791717396        5.6191385260        0.4556288479
  C         4.3428117419        7.4666307084        1.8292683756
  C        12.4300818130       -0.1644660860       -2.6656854072
  S         5.4326213338        5.8109171356       21.2628280123
  C         5.9303238855        8.7128872990       21.2585728404
  H        17.6279825676        4.8684478183        7.6176070801
  H        17.3123805065        4.0811779369        6.0117002923
  C        18.5650031500        5.8643266266        5.8266813010
  H         4.7993339847        7.7507724187        2.8078042896
  H         3.4894839196        6.9001098187        2.2431260364
  C         3.7333895979        8.5627072822        0.9394658719
  H        12.1735452109       -1.2501821479       -2.6891491391
  C        12.9265647359        0.1480604518       -3.8354093260
  H         5.1844581145        8.2358381312       21.9451931515
  H         5.5389955406        9.6779482815       20.9838332670
  C         7.2380607320        8.8909187099       21.9384667872
  H        18.2969356507        6.8752410698        6.0076293406
  H        18.4555608931        5.7318546058        4.7673615001
  C        19.9635352495        5.7266209582        6.4392131857
  H         3.3992468656        8.2221643149       -0.0127537028
  H         2.7793622354        8.9161215444        1.3342961657
  C         4.7996718038        9.5917697813        0.7571187702
  S        13.5880022800        1.6494166126       -4.2769634304
  C        13.1080755802       -0.9600733322       -4.8316200444
  H         7.2997885711        9.8158165313       22.5275118173
  H         8.1144773208        8.8663108218       21.3242049529
  H         7.2929744172        8.1342157127       22.7020833436
  H        20.6303270477        6.4956012861        6.0451579430
  H        19.7772445078        5.6335178035        7.4899541909
  H        20.2646911496        4.8095685500        6.0386088391
  H         5.7219356047        9.2039693170        0.4327809748
  H         4.4643538020       10.2782752629       -0.0123847459
  H         5.0405895990       10.1497921106        1.6738633118
  C        13.9093394642        0.8774535873       -5.8871593611
  N        13.6579608903       -0.4801718769       -5.9550976452
  O        12.7713305377       -2.1465182750       -4.6134768560
  S        14.8716489868        1.7577967643       -7.0535855658
  C        14.0226656196       -1.2985959016       -7.1193983522
  H        14.2093764438       -2.3812105300       -6.9149965259
  H        14.9089698814       -0.9660759744       -7.7213046752
  C        12.8479291903       -1.3351878466       -8.1186280141
  H        12.9857002224       -0.7182556180       -8.9335382256
  H        11.8732329139       -1.1665634394       -7.5799102889
  H        12.7790509552       -2.3351063374       -8.5212704340
  H        -3.0634129887       15.0983096920       16.0860239111
  C        -3.0446949279       14.0673629788       16.4003372508
  H        -4.0121611365       13.7049242048       16.6254526010
  C        -2.0008205048       13.7900583758       17.4896126995
  C        -2.7004495591       13.4502775332       15.0040500323
  C        -2.6686400135       13.9400299021       18.8702772692
  H        -1.6068697401       12.7744250138       17.4104564136
  H        -1.1102665009       14.3407407808       17.4142865837
  H        -3.3366081935       13.9532563168       14.3279173656
  H        -1.8133817025       13.7174308776       14.5134935650
  H        -3.0159814415       12.3585697461       14.9633219857
  C        -1.6846636948       13.4925579499       19.9660531098
  H        -3.6781343317       13.4828993683       18.9936540196
  H        -2.6980423831       15.0049128407       18.9608926980
  C        -2.3063316498       13.7398817475       21.3695063433
  H        -1.4065025515       12.4634967351       19.9330888661
  H        -0.7594822546       14.0652108324       19.9137341747
  C        -1.3720557471       13.2016491083       22.4810650928
  H        -3.2707189706       13.2094218116       21.4283512920
  H        -2.4714947298       14.7677394742       21.4415848527
  C        -0.1246604036       14.0978377808       22.7953017555
  H        -2.0183443975       12.9926520336       23.3812105675
  H        -1.1363207969       12.3201153325       22.0776039787
  C         1.0293363450       13.2527809821       23.4690012288
  H         0.2603494843       14.6538413958       21.9031463225
  H        -0.4317314776       14.8571899254       23.5080457100
  C         1.3922201903       11.9754953348       22.6906871084
  C         0.5508077293       12.5118792880       24.6985082354
  C         2.3181036939       14.0841593060       23.7415164095
  C         1.1502259076       10.8574465088       23.4534536133
  C         1.8683283749       11.6337956483       21.3964523575
  C         0.6133021140       11.1576519957       24.7345766953
  C         0.0474738421       13.1092510736       25.8049716971
  H         2.4391760746       14.6688060365       22.8454733454
  H         2.0724886596       14.7827490106       24.5652592551
  C         3.5636378653       13.2229570657       24.1716988712
  S         1.5418004826        9.4148946447       22.6526990391
  C         1.9851658646       10.3094773881       21.2654060377
  H         2.1446898658       12.4835527512       20.7119166298
  C         0.0961141382       10.4646712972       25.8214058890
  H         0.0727976357       14.1874785078       25.7621572196
  C        -0.4425885447       12.4162537591       26.8632908691
  H         3.7020028284       12.2639696265       23.6888082167
  H         3.4517702664       13.0749613321       25.2529672219
  C         4.8551178768       13.9635585349       23.9655940340
  C         2.4380567521        9.5977958468       20.0290533485
  C        -0.3672544005       11.0585540270       26.9582996826
  H         0.0191885202        9.4384711219       25.8834439381
  C        -0.7468258084       12.8553442090       28.1216473208
  H         5.5983199097       13.2427628916       24.3654773435
  H         4.9709621718       14.8805534853       24.4969410044
  C         5.2380712831       14.3031821734       22.5357306973
  C         2.4883469707        8.1984609347       19.7621150385
  C         2.9566429843       10.4402886183       18.8780481411
  C        -0.8169259415       10.4253174733       28.2690020984
  C        -1.0443804293       11.7988942159       28.9270693521
  S        -0.8469271811       14.3749302540       28.8492607348
  H         6.1070152642       14.8983964786       22.5156138685
  H         4.5059671587       14.9759314496       22.1688022579
  C         5.5562201299       13.0454396016       21.6793466842
  N         2.0855980574        7.2798711980       20.6656159597
  C         2.9134555891        7.7118961429       18.5169620561
  C         3.3851224649        9.9027279025       17.6964139507
  H         2.8055321635       11.4936137393       18.9144774347
  C         0.3719235675        9.6719264441       29.0042012619
  C        -2.0442310305        9.4003595161       28.1239498174
  C        -1.3752535406       12.1780633710       30.2581193384
  C        -1.3854114211       13.5949971980       30.2772212025
  H         6.5258599241       12.6888350094       22.1025563119
  H         4.8478815364       12.2379759199       21.8245095898
  C         5.8150395986       13.3013290087       20.1402865690
  S         2.1442026030        5.8450598936       20.0118234683
  N         2.8701438218        6.2810951293       18.6006102600
  C         3.3763913209        8.4655769650       17.4589276417
  H         3.5342781061       10.6346366958       16.8517432900
  H         0.5784795729        8.8699116372       28.2546954841
  H         0.0482629439        9.2193185810       29.9134926171
  C         1.6469934854       10.4736845119       29.2983723005
  H        -1.7461961855        8.8144298077       27.3272693955
  H        -2.1200914756        8.6438388411       28.9169362586
  C        -3.3367042627       10.1938508184       27.8031113232
  H        -1.7054266189       11.4229383338       30.9263297845
  C        -1.7874512533       14.3934708217       31.5257631532
  H         5.1633670837       13.9807803392       19.6094794033
  H         5.7604064355       12.3888427028       19.5513782224
  C         7.2755212016       13.6393998624       19.7797428255
  C         3.4254938206        7.8380760069       16.2173141939
  H         2.0168502869       10.5793032683       28.2717577309
  H         1.5501821139       11.4432708088       29.8267873045
  C         2.6606906610        9.6251010345       30.0039157550
  H        -3.1401277944       10.8920168673       27.0065979960
  H        -3.6827131616       10.8122652560       28.6376704927
  C        -4.4873119991        9.3390608598       27.4788740898
  C        -1.7920783838       15.7768369914       31.7073691143
  C        -2.0796164854       13.5656752617       32.7642890498
  H         7.7993285946       14.3129970845       20.4882691471
  H         7.7256538869       12.6254806725       19.8497685578
  C         7.5104422366       14.0229416096       18.3251583097
  H         3.2710904659        6.7979667404       16.1459106620
  C         3.6435561609        8.2608179610       14.9105545618
  H         2.7501952087        8.6365912727       29.5225065661
  H         2.3203579219        9.3464304151       31.0325652918
  C         3.9915469926       10.2442866057       30.2601526747
  H        -4.1363726718        8.7710264880       26.6319491588
  H        -4.8535125706        8.6609379205       28.2875269567
  C        -5.7225382150       10.1728234740       27.2246951116
  N        -1.5532724767       16.7089335322       30.7267025080
  C        -1.9961096569       16.3837034891       32.9231756514
  C        -2.2827736548       14.1902426309       33.9587206013
  H        -1.9799255489       12.5338157464       32.6550742138
  H         8.2758765487       14.7723150430       18.2048384051
  H         7.8070852155       13.1993585349       17.6561710788
  H         6.6859576341       14.5092423004       17.9462448634
  S         3.8208830469        9.9110237800       14.3364446520
  C         3.7346146629        7.2397100036       13.8807142508
  H         4.1713833691       11.1322080082       29.6086571604
  H         3.8397895463       10.7431537013       31.2736438384
  C         5.1332280049        9.2715949551       30.2874642850
  H        -5.3850556352       11.1938475875       26.7936182124
  H        -6.2258500025       10.6402210942       28.0939898043
  C        -6.5899218859        9.6139433469       26.1279697110
  S        -1.6143844752       18.2439965828       31.3329281922
  N        -2.0290693546       17.7798268046       32.8645309785
  C        -2.2186427635       15.6624570296       34.1052818155
  H        -2.3848116718       13.6704594292       34.9268204234
  C         4.0721823887        9.1304516763       12.7998488763
  N         4.0968343680        7.8134806391       12.7210102253
  O         3.4396188809        6.0424801336       14.0320275919
  H         5.9774085635        9.7783794444       30.7122410937
  H         5.4433705343        9.0408175584       29.2540474095
  C         4.9505805781        8.0613822944       31.1397465256
  H        -6.1253022576        9.2194671550       25.2320898741
  H        -7.1867005188        8.8064772958       26.5981959493
  C        -7.5328060908       10.6613725267       25.6129585269
  C        -2.4768993678       16.3900529694       35.3685440383
  S         4.6322125727       10.0252189434       11.3487192600
  C         4.2613173153        6.8706448362       11.6319161565
  H         4.6176708432        8.2870145151       32.1345587807
  H         4.1652405424        7.3350791690       30.7672340387
  C         6.3186849506        7.3658923037       31.3857776305
  H        -7.1635759636       11.1101634395       24.6412173951
  H        -7.4840808523       11.4998919616       26.1879337451
  C        -8.9118076525       10.0508478846       25.2902255557
  H        -2.2855038131       17.4753261523       35.2699125818
  C        -3.0654754460       15.9894532819       36.5154955891
  H         4.9426772948        7.3591767806       10.8784359321
  H         4.8106803527        5.9012557895       11.8919334273
  C         2.9486991986        6.5686463794       10.8837377174
  H         6.2923822592        6.7835965297       32.3187605523
  H         7.2288252002        8.0426626791       31.5465704768
  C         6.6138303707        6.3578885109       30.2667532449
  H        -9.4589064820       10.6758248894       24.5282175220
  H        -8.7466628665        9.2137403991       24.6179838550
  C        -9.7955725563        9.8739061775       26.4514852377
  S        -3.5688794204       14.4246962046       37.0853155615
  C        -3.2323121355       17.0446047723       37.5372479437
  H         2.3107170389        7.4737908753       10.8031502553
  H         3.2799526053        6.2443073612        9.9232453919
  H         2.3449803786        5.7937722650       11.4431453096
  H         6.8155951506        6.7027421872       29.2713812572
  H         5.8032650003        5.6830796190       30.1381533245
  H         7.4565723251        5.7560728466       30.6310120718
  H        -9.6094467266        8.9550871717       26.9931162925
  H       -10.7658734440        9.8449199230       26.0642505280
  H        -9.7250883157       10.7332574828       27.1135113779
  C        -3.9464121387       15.1563981502       38.6411095647
  N        -3.7707584203       16.5322622622       38.6309837281
  O        -3.0005339051       18.2816007672       37.3353016544
  S        -4.9005951131       14.3164058711       39.8977062303
  C        -4.0877089281       17.3453781023       39.7968591768
  H        -4.2003387299       18.4316723708       39.6298609306
  H        -5.0562748719       16.9614829555       40.1717520041
  C        -3.0041473247       17.1973019006       40.8736652153
  H        -2.5428221592       18.0977668269       41.0935973922
  H        -3.3553902661       16.7425370717       41.7826346221
  H        -2.2112728985       16.4738896557       40.6147935431
