352
i=
  H         4.4902245547        1.4248905419       12.8043556127
  C         4.0360866872        2.3818670023       13.1217146145
  H         4.7338424182        3.1903400789       13.0938488085
  C         3.1128630346        2.6474437038       11.9127933177
  C         3.3818093563        2.2627278092       14.5357436373
  C         3.8469206197        2.8928189664       10.5503509511
  H         2.4012781728        3.4561218709       12.0031863470
  H         2.5163738756        1.7140437333       11.8354308793
  H         4.2313142982        2.0867949186       15.2816062061
  H         2.6212054235        1.4492486455       14.6773342729
  H         2.8411420657        3.1309110215       14.7526341660
  C         4.5737596007        1.5931779176        9.9120871643
  H         3.0967731784        3.2800413689        9.8365708766
  H         4.5149274681        3.6901797324       10.6800626094
  C         5.1439744767        1.8975955511        8.5490320584
  H         3.8651343334        0.8164587607        9.8067993166
  H         5.3461372492        1.1786846295       10.5091828734
  C         6.4234448918        2.8381462983        8.5906544462
  H         4.3980178886        2.3764116610        7.9620752719
  H         5.3134584736        0.9634316868        8.0336019908
  C         7.6961495304        2.0280054280        8.9849745079
  H         6.4965740184        3.2653686867        7.5519990049
  H         6.1700565485        3.6183970544        9.2406230244
  C         8.9841151168        2.8921588236        9.2090883668
  H         7.8604386884        1.3546311897        8.1906758362
  H         7.5249731820        1.2902183878        9.8121371557
  C         8.6222325871        4.2099460331        9.9330475496
  C         9.4039273666        3.5643614064        7.9608493864
  C        10.0704754751        1.9857019553        9.9659010076
  C         8.9275751837        5.3209151382        9.1644033496
  C         8.2456664400        4.6244311875       11.1892361574
  C         9.3857346802        4.9196979096        7.8880949506
  C         9.8328079969        2.9628654161        6.7929720315
  H         9.5724093514        1.6979578125       10.9105672421
  H        10.3701404153        1.0277511797        9.5450758576
  C        11.3967991169        2.8524647975       10.1366111072
  S         8.5590037015        6.8535029411        9.9342859966
  C         8.0756898855        5.9699091966       11.3403586108
  H         8.0348396922        3.7784508756       11.9289316113
  C         9.8527839460        5.5487235717        6.7198531137
  H         9.8021283258        1.8393564598        6.8145593368
  C        10.2190361707        3.5705630065        5.6304043201
  H        11.3070407195        3.8901187909       10.5147088448
  H        11.7537274998        2.9060446722        9.1529973228
  C        12.5501035430        2.1367864720       10.9457718088
  C         7.7796270079        6.5935844673       12.6599255378
  C        10.2407823744        4.8991059439        5.5479003364
  H         9.8596875183        6.6111707220        6.7440658152
  C        10.6065462767        3.1418892465        4.3599939206
  H        13.4543727051        2.4554842640       10.5233153673
  H        12.4995712051        1.0129852292       10.7575729849
  C        12.4391392748        2.5527910916       12.4173428882
  C         7.5589714280        7.9614518898       12.9005700528
  C         7.1874705909        5.7046226936       13.7038469473
  C        10.6197917875        5.5598621553        4.2546435648
  C        10.8444284686        4.2083285761        3.5117875402
  S        10.8762555729        1.5828197546        3.6702774055
  H        12.9214679481        3.5820347653       12.3724881280
  H        11.3793972983        2.6398836270       12.6435008797
  C        13.0304495369        1.5575183334       13.5118289627
  N         7.8399270264        9.0102775202       11.9144375442
  C         7.1345067194        8.5065380756       14.0644102274
  C         6.8051054745        6.2299192784       14.9215611708
  H         7.2802620379        4.6470522421       13.6646248739
  C        11.9468324421        6.3127477217        4.3943108553
  C         9.5195103400        6.3947697259        3.5617988855
  C        11.2971131318        3.7840635857        2.2444741952
  C        11.2609087835        2.4047873064        2.1932934937
  H        14.0124111644        1.3119180088       13.2558855850
  H        12.5065888791        0.6011780798       13.4388204880
  C        12.8489554994        2.1961167731       14.8974002313
  S         7.6214520418       10.4296490512       12.6440375345
  N         7.1234722053        9.8474204469       14.0977497261
  C         6.7428404385        7.7297291032       15.2164698383
  H         6.6977967047        5.5713953168       15.7331379665
  H        11.7075872839        7.1505185891        5.0213466410
  H        12.3287503127        6.8704780813        3.5257506290
  C        13.1200681433        5.4411619063        4.9300188093
  H         9.1942521176        7.1603571233        4.2697223411
  H         9.8818930786        6.8963325716        2.6638018416
  C         8.3520697518        5.5778052163        3.2231814848
  H        11.4851388663        4.5188858251        1.4665742691
  C        11.5454481748        1.6613553945        0.9122778560
  H        13.7064284448        2.7743827807       15.2294907819
  H        12.0109048818        2.8456398225       14.7318848476
  C        12.6276315427        1.2918721050       16.0854027905
  C         6.5775553256        8.3640832697       16.4451239473
  H        12.9797968741        4.8253789912        5.8589961609
  H        13.3248346959        4.7229409789        4.1277372375
  C        14.4848036500        6.1583051204        4.9248520744
  H         7.8904210048        5.2940395188        4.1694944242
  H         8.6209468739        4.6464421571        2.6058487189
  C         7.3390029652        6.3874697597        2.3815669572
  C        11.5878792549        0.2441885984        0.7550886995
  C        11.7722687385        2.4756869353       -0.3749683725
  H        13.2683110437        0.4217638517       16.0353201378
  H        11.6072318882        0.9563131267       16.0097788339
  C        13.0066935102        2.1849422907       17.3149847425
  H         6.6188077317        9.4407925328       16.4504752225
  C         6.3675484164        7.9200403248       17.7213862017
  H        14.4317895357        7.0953675801        5.3573897724
  H        14.7850500622        6.3057510482        3.8793161681
  C        15.5751258383        5.2530242697        5.5115093258
  H         6.9854675979        7.1481126962        3.0613217741
  H         7.7729060200        6.9742382561        1.5569022096
  C         6.1908224648        5.4737178642        1.8675227355
  N        11.3297971706       -0.7219187556        1.7305364681
  C        11.9738269234       -0.3116473072       -0.4714290267
  C        12.0858593963        1.8590938459       -1.6406086709
  H        11.8913547210        3.5399389584       -0.2879901095
  H        12.5592120175        3.1638713535       17.1553828080
  H        14.0570534118        2.4098743837       17.4718706295
  H        12.4994332021        1.7367003724       18.2289361193
  S         6.1397251439        6.2288586196       18.1721786179
  C         6.3315541141        8.8454685431       18.8403909256
  H        15.2427011801        4.6910803396        6.3728107179
  H        15.6794017158        4.5046591787        4.7247919163
  C        16.9255397650        5.9600729407        5.7538953613
  H         5.8377591238        4.8251134202        2.6701464089
  H         6.6943129252        4.8873700781        1.1078722573
  C         4.9912439520        6.2156936533        1.1502700783
  S        11.4954259097       -2.1997084614        1.0727341191
  N        12.1477155104       -1.6912405203       -0.3399180958
  C        12.1588213185        0.3731077259       -1.7079822692
  H        12.2816812146        2.4668432216       -2.4677969232
  C         5.9060022799        6.8436461383       19.7779676435
  N         6.0772718105        8.1766168015       19.9253927618
  O         6.4758940922       10.0639711897       18.7690709130
  H        17.4707947949        5.9107670663        4.8142022273
  H        16.8219644967        7.0147075292        5.8137350058
  C        17.6684479994        5.2722186423        6.9369618613
  H         4.9559019185        6.0183780441        0.0331357303
  H         4.0666343256        5.8398605521        1.5478888030
  C         4.8035783618        7.6515083872        1.4543907366
  C        12.3748345266       -0.4438942731       -2.8342208808
  S         5.4875360837        5.8849747516       21.2027382426
  C         6.1727795073        8.9232452161       21.1997432375
  H        17.1638766238        5.3849340694        7.8171098797
  H        17.8210819061        4.2411162235        6.6438489522
  C        18.9891521908        6.0068802331        7.1535002990
  H         5.6291454609        8.1229494596        0.9602477625
  H         4.9578723668        7.8490376840        2.5231053062
  C         3.4072087314        8.0196994469        0.9683155275
  H        11.9836925868       -1.4747468376       -2.8213034681
  C        12.9826936690       -0.2119117286       -4.0566025385
  H         5.8801839901        8.2140354132       21.9785413273
  H         5.4382702717        9.7955722648       21.2368018985
  C         7.6421623057        9.3713392151       21.5557658085
  H        19.5360194781        5.4897578411        7.9681040796
  H        18.8526510927        7.0202455541        7.6362635664
  C        19.9402819748        6.1239292610        5.9942697374
  H         3.3578036652        7.9767663357       -0.1270388964
  H         2.6829316325        7.4154626679        1.4194691094
  C         3.2081613464        9.4826845105        1.3168284237
  S        13.3381188536        1.3951370281       -4.5373719348
  C        13.1759760778       -1.3128336728       -5.0282874631
  H         8.4407793644        8.9200814252       20.9140205139
  H         7.8706353130        9.0324572091       22.5227231337
  H         7.7041424873       10.4460410938       21.6403303321
  H        20.5981941100        6.9008917045        6.3748334373
  H        20.5821529721        5.2626749718        5.9345121545
  H        19.5692968162        6.3548701356        5.0443038048
  H         3.4251088951        9.6528268890        2.4140543315
  H         3.9303834291       10.0639881466        0.8195669975
  H         2.2638280920        9.8701687972        1.0899668933
  C        13.8723940005        0.5931530060       -6.0339111888
  N        13.7835969592       -0.7389050687       -6.1044858742
  O        12.8336369174       -2.5069105245       -4.9066270663
  S        14.7466180659        1.4205512605       -7.3879390399
  C        14.0897053968       -1.6109994559       -7.2069638437
  H        14.4016469263       -2.5740952044       -6.8668396551
  H        14.8223170480       -1.2786490478       -7.8496118774
  C        12.8692969680       -1.8523569375       -8.1311606714
  H        11.8627335400       -1.8343523433       -7.5964334009
  H        12.9832780857       -2.8865842763       -8.6336160573
  H        12.8873856969       -0.9853618206       -8.8274908836
  H        -1.5668100670       14.9234933326       16.9165218631
  C        -2.6108688062       14.7791451084       16.6419264381
  H        -2.9438717779       15.8095071031       16.5149842967
  C        -3.4110808707       14.0661833019       17.7796582617
  C        -2.7422338416       14.0075860787       15.3434159258
  C        -2.6373459508       12.8044325543       18.3062547045
  H        -3.5551280845       14.6640917948       18.6346598708
  H        -4.3592873556       13.9273332223       17.3147883966
  H        -2.4441643431       12.9448438717       15.3216684047
  H        -3.7988243506       14.0120775839       15.0412095936
  H        -2.1277560285       14.4419281516       14.5955312153
  C        -1.7196767552       13.1158542514       19.5513872238
  H        -2.0747124246       12.2379693221       17.5383594400
  H        -3.5342512428       12.2576345697       18.6338698219
  C        -2.4854027028       12.9997169669       20.9198791649
  H        -0.8570431147       12.4232205591       19.5257288847
  H        -1.3526010956       14.0858387694       19.3955566292
  C        -1.5103184255       12.5573797446       22.0595451289
  H        -3.3220305096       12.2687283154       20.9552363166
  H        -2.9633214220       13.9031991805       21.2545024263
  C        -0.2712967033       13.4395444776       22.3294245800
  H        -2.1589103325       12.4894131160       22.9538667873
  H        -1.1241686175       11.5839671605       21.8342487725
  C         0.8791468522       12.7977375786       22.9970465586
  H         0.0061209071       13.9174529723       21.4513538702
  H        -0.5535733691       14.2410287446       22.9305029129
  C         1.3424032706       11.4993290782       22.3582551725
  C         0.5494525285       12.0638984087       24.2867860333
  C         2.1219674557       13.7184096140       23.3717797526
  C         1.3003462858       10.4144604918       23.1669447262
  C         1.8691073006       11.2102745289       21.0677536571
  C         0.8205765075       10.7875505273       24.4687095717
  C         0.0542092980       12.6820200944       25.3831544219
  H         2.4643881705       14.3396339185       22.5315895443
  H         1.7739673333       14.4784601649       24.0898930881
  C         3.4120513273       12.9409214784       23.7881229396
  S         1.7909555091        8.9281967377       22.3595386364
  C         2.0765093348        9.8457845055       20.9649741844
  H         1.9720759349       11.9917476070       20.3226978427
  C         0.5925632260       10.1768396884       25.6550586495
  H        -0.0871181727       13.7196464620       25.2990803764
  C        -0.1072103925       12.1200574728       26.6239284342
  H         3.7109134927       12.3002619457       22.9355449622
  H         3.1498730786       12.3780143791       24.6456738583
  C         4.6147650734       13.8321863861       24.1321649025
  C         2.6194749271        9.1713539361       19.7595763234
  C         0.0774154811       10.8177748646       26.7604509133
  H         0.8108619870        9.1258557230       25.7208761459
  C        -0.4500417959       12.5159787390       27.8805627043
  H         5.3726066771       13.0445623149       24.4755077346
  H         4.2715889339       14.3589168102       25.0501323074
  C         5.1444158052       14.8935713245       23.0992967855
  C         2.4545641132        7.7779784248       19.4297075960
  C         2.9976126855        9.9801002993       18.6542843805
  C        -0.3096406551       10.1008879934       28.0288615621
  C        -0.5678288379       11.4336996220       28.7339849223
  S        -0.7540894310       14.0409804244       28.6507536832
  H         5.6818097869       15.6702107411       23.6586132272
  H         4.2774477360       15.3905105522       22.6069804303
  C         6.0268480628       14.1805383003       21.9914538693
  N         2.2641922567        6.7930145366       20.3234004536
  C         2.7020584467        7.2525689411       18.1291801335
  C         3.3387855309        9.5074150307       17.3816669918
  H         3.3536596503       10.9566977340       18.9980240770
  C         0.6848529120        9.1601554030       28.6410413691
  C        -1.6329685112        9.2874672470       27.7705424874
  C        -1.0300483012       11.8487942995       29.9686467542
  C        -1.1524491328       13.2183593594       30.0711419831
  H         6.7891113197       14.8426147009       21.5458031753
  H         6.4079279578       13.2646341310       22.4551108625
  C         5.1913530749       13.8385404485       20.8006624815
  S         2.0988532421        5.3756139395       19.5987281012
  N         2.4206551122        5.8924112600       18.1369553236
  C         3.0877528550        8.0583561312       16.9807925290
  H         3.7385308264       10.1564831553       16.6657568362
  H         1.0563946309        8.3843661773       27.9849719406
  H         0.1837551813        8.7180295740       29.5043370188
  C         1.9203409868        9.9808951719       29.1252002686
  H        -1.4872657688        8.5883702055       26.9540472431
  H        -1.9397184873        8.7114510475       28.6514164358
  C        -2.7413461163       10.1458322997       27.2045088793
  H        -0.9687380129       11.0927131587       30.7749982005
  C        -1.3296328326       14.0051728597       31.3765853582
  H         5.0356848812       14.7467493888       20.1837028915
  H         4.2540590062       13.3148302867       21.1368259430
  C         5.8448847649       12.7754198867       19.9909713856
  C         3.3502842675        7.4160919988       15.7353611534
  H         2.3293568781       10.5075766593       28.3050398197
  H         1.6162180833       10.7515269503       29.8444238023
  C         2.9290372130        8.9867637381       29.8116690325
  H        -2.5174906008       10.5299671913       26.1846273865
  H        -2.9350887225       10.9812856942       27.9314911172
  C        -4.0245800341        9.2776650617       27.0369016241
  C        -1.4133469682       15.3845196051       31.5534079631
  C        -1.5356898892       13.1912396965       32.6015473999
  H         5.9519884472       11.8519636673       20.6456189501
  H         5.1026520091       12.5951196788       19.2761131988
  C         7.1112712273       13.2690834838       19.2302197060
  H         3.1926030405        6.3657131633       15.8359414043
  C         3.6207211465        7.8737615295       14.5062619147
  H         3.2943111500        8.2458668205       29.0918575049
  H         2.3970411774        8.4509330543       30.6000843464
  C         3.9801599875        9.8058493314       30.5678148417
  H        -3.9111640552        8.5874151957       26.1934247780
  H        -4.1672444941        8.7913714444       28.0453971620
  C        -5.3352112116       10.0894145521       26.8252565211
  N        -1.2359226189       16.4205793492       30.6228097940
  C        -1.8953995920       15.9200643624       32.7446468999
  C        -1.9724002917       13.7127465613       33.7914610852
  H        -1.3808812158       12.1474424816       32.6139547052
  H         7.0875034987       14.3687899159       19.0699173825
  H         7.9614058799       12.9642180362       19.7570205081
  H         7.1146311166       12.7815305055       18.3071591742
  S         3.8906825797        9.5435818909       14.1337832192
  C         3.6744283986        6.9173632228       13.4487490303
  H         3.9689452957       10.7797235255       30.0821956588
  H         3.7904006793       10.0894474378       31.6362828228
  C         5.3725556340        9.2249736950       30.5489529048
  H        -5.2839628307       10.9200639576       27.5125762224
  H        -6.2938611690        9.5940740338       27.1121848279
  C        -5.4681750132       10.5085434064       25.4317495880
  S        -1.4281263860       17.8230303569       31.3721138115
  N        -2.0237780587       17.2625693188       32.7341791419
  C        -2.1856732660       15.1827043876       33.8693666898
  H        -2.0599813623       13.0355767872       34.6401273192
  C         4.0334171087        8.8723255969       12.4708969176
  N         4.0350188631        7.5382100772       12.3400600676
  O         3.6090941722        5.7256075492       13.7397529659
  H         6.0734059442        9.8716609201       31.1158243446
  H         5.7584754228        9.1623114927       29.4889799942
  C         5.5362341146        7.8491398974       31.2071838464
  H        -4.5946748189       11.2196174671       25.1558945823
  H        -5.2935839663        9.6409337435       24.8349704718
  C        -6.7710774196       11.2321064927       25.0616376723
  C        -2.4874415533       15.8053481888       35.1252920022
  S         4.7157517650        9.7854417701       11.0968826368
  C         4.3166677968        6.7387908234       11.1430573175
  H         5.1540801758        7.8145300034       32.2698077824
  H         4.8079301377        7.2936541226       30.6619845217
  C         6.8880108239        7.1047432971       30.9892394822
  H        -6.7284364954       11.7510495674       24.1864836067
  H        -6.8753986079       12.1132038223       25.7745799907
  C        -7.9136582497       10.3361975082       24.9426695643
  H        -2.1036347354       16.8191343752       35.2759368182
  C        -3.1934857458       15.3783263239       36.2348838036
  H         5.0052901617        7.2162053742       10.5444091644
  H         4.7642402431        5.8111419558       11.4215488273
  C         3.0354806786        6.2958942302       10.3439086580
  H         6.8388543042        6.1388156024       31.5756087204
  H         7.6658491200        7.7025909523       31.4831728218
  C         7.2828764231        6.9099843017       29.5358089720
  H        -8.3410023201       10.2759234701       23.9482752420
  H        -7.6421142592        9.3209430518       25.1324454535
  C        -8.9381189573       10.6736578098       26.0576843516
  S        -3.8832201374       13.8507913631       36.4312694014
  C        -3.3263089288       16.2678248284       37.3570701695
  H         2.1654635779        6.0982558390       11.0476463511
  H         2.7016234081        7.1775794863        9.6379250265
  H         3.1199743480        5.3324248785        9.8333192292
  H         6.4428394140        6.9233393229       28.8477822634
  H         7.8020758059        5.9962551743       29.3218663375
  H         7.7954078423        7.8127981146       29.2070307186
  H        -9.9144589882       10.2775324032       25.7748696456
  H        -8.9595681985       11.7403463337       26.3012508715
  H        -8.6608141065       10.0702213329       26.8982362271
  C        -4.3444580959       14.3393799809       38.0346941313
  N        -4.0191843477       15.5907610343       38.3040606524
  O        -2.7890457407       17.3439739353       37.4545168689
  S        -5.0727408944       13.2257344658       39.2580664413
  C        -4.2235619834       16.1772479550       39.6133602122
  H        -4.5633985627       17.2352954673       39.6082736265
  H        -5.0409631748       15.6495449761       40.0976442066
  C        -2.9517186723       15.9633932805       40.5297781212
  H        -3.1435085879       16.4094342286       41.4640605364
  H        -2.8734620093       14.9256914231       40.8420085057
  H        -2.0062020984       16.2038411938       40.1184005631
