352
i=
  H         2.8179521898        3.2468473471       12.3730606580
  C         3.2636235032        2.3248071619       12.6722331999
  H         2.5836628420        1.5251117915       12.4652221290
  C         4.4254898044        1.9577210821       11.7253612875
  C         3.7916874990        2.3175460063       14.1884181467
  C         3.9936292670        1.8997553680       10.1931484886
  H         4.8760689861        1.0814837660       12.0677978991
  H         5.3037313312        2.6382628444       11.7246404742
  H         3.1570959246        2.8348866962       14.8913918038
  H         4.7456350636        2.9144134912       14.2675431943
  H         3.8017069790        1.2497532628       14.5925309213
  C         4.9327095949        0.9596344051        9.3428156066
  H         2.9811644271        1.6180166953        9.9037384031
  H         4.0886031146        2.9100708644        9.8644214581
  C         5.6219556017        1.5767644236        8.1128426293
  H         4.3367115357        0.0445663905        9.0933765846
  H         5.6995501210        0.5231667497       10.0230004522
  C         6.7564133170        2.4974804202        8.3278928205
  H         4.8830760935        2.0464384334        7.4371361421
  H         6.0894335789        0.6842570787        7.7001849233
  C         8.0241383200        1.7563443741        8.9218902440
  H         6.9790866864        2.9918690589        7.3382620291
  H         6.2890750308        3.2571478604        9.0743521484
  C         9.3417596074        2.6039289800        9.1322862782
  H         8.3652077469        0.9333366348        8.3236138941
  H         7.7817726823        1.2679931287        9.8613177461
  C         8.8649124890        3.9273662007        9.7292642273
  C         9.7146878046        3.3004842017        7.8872512973
  C        10.5656696306        1.9782760697        9.7981555278
  C         9.2176702482        5.0047147096        8.8989250626
  C         8.3282057896        4.3857954302       10.9105131725
  C         9.7201456161        4.6202516588        7.7342664956
  C        10.1819545813        2.6715024977        6.7291846249
  H        10.2978245767        1.4881260781       10.7450906834
  H        11.0121728700        1.1096189617        9.2507384276
  C        11.6619199579        3.0656748800       10.0639515219
  S         8.7062463572        6.5097500719        9.5326202662
  C         8.2924564503        5.7148152354       11.0118245899
  H         8.0978985789        3.5981887959       11.6715976843
  C        10.0588920569        5.2154582533        6.5438991802
  H        10.1724520757        1.5951695663        6.7718917750
  C        10.5870668477        3.2325299926        5.5570196592
  H        11.1716378370        3.9060638132       10.5256610317
  H        12.2720541886        3.2659861954        9.2397144565
  C        12.7380505507        2.4273246867       11.0038775007
  C         7.7513708925        6.4066680430       12.2245539316
  C        10.5080223983        4.5792535565        5.3742737000
  H         9.8963394292        6.3210710470        6.3897204975
  C        10.9769436365        2.7556995956        4.3277193893
  H        13.6331521715        3.0411863775       11.0712834092
  H        13.1453129867        1.5072417804       10.5478601054
  C        12.3164786033        2.2947558252       12.5017719058
  C         7.8670857683        7.8045762425       12.5697809481
  C         7.3452041801        5.5339571549       13.3758760800
  C        10.9754446585        5.2881060123        4.1539115770
  C        11.2980898093        3.8610029934        3.4998849964
  S        11.2026946995        1.2672894050        3.5751363773
  H        11.5690063297        3.0285757835       12.7576300284
  H        11.7828841238        1.3355462556       12.6433928637
  C        13.4004630991        2.3758861436       13.5662644539
  N         8.2121296797        8.7556951730       11.5933845726
  C         7.6144524002        8.3376484350       13.8423095172
  C         7.1025068073        6.0171088800       14.6715571253
  H         7.0216418084        4.5179524555       13.1317527711
  C        12.2122360404        6.1124736894        4.4925045791
  C         9.9193745465        6.0812316817        3.4001892798
  C        11.5831773010        3.3799854747        2.1739592569
  C        11.5868032986        1.9808004763        2.1072916423
  H        14.0086575749        3.2381019287       13.4836410513
  H        14.0456143196        1.4794468310       13.3265370875
  C        12.8505752581        2.3474721013       15.0107122865
  S         8.0131929600       10.2130667862       12.2541072022
  N         7.6708488451        9.7572486362       13.7653916240
  C         7.2498957481        7.4982311978       14.9419859454
  H         6.7182389118        5.3921667364       15.4582282878
  H        11.9720130268        6.9688690507        5.1506453672
  H        12.5217407553        6.6054950465        3.6167056738
  C        13.4996697014        5.3291717157        4.8871341887
  H         9.6563659659        6.9929389566        3.9191098483
  H        10.2202454232        6.3980143983        2.3798108685
  C         8.5980688583        5.2968378614        3.1944488470
  H        11.7073130387        4.0901179379        1.3381846481
  C        11.8836461487        1.1871025833        0.8761965159
  H        12.2964209076        3.2641855143       15.1903714882
  H        12.1389306306        1.4797508116       15.0811495371
  C        13.9383872502        1.9760503913       16.1108441617
  C         7.0120109189        8.1019335538       16.2089745245
  H        13.2558777667        4.7729399627        5.6953649224
  H        13.7682198240        4.5878069622        4.1190235462
  C        14.6241334592        6.2532515560        5.2479485041
  H         8.1351794100        5.1749749464        4.1881977824
  H         8.8061774756        4.2871973281        2.8637675986
  C         7.6697452377        6.0273936097        2.1692343183
  C        11.9767937919       -0.2054194453        0.8181452171
  C        12.2670725990        1.9387333167       -0.3289272057
  H        14.8478917665        2.4599098465       15.7675711759
  H        14.0873538081        0.8763015782       16.1665005739
  C        13.5884331857        2.4945902584       17.4925048202
  H         6.9552234990        9.2057251917       16.2355672382
  C         6.8672747519        7.5761292987       17.4885453782
  H        14.3154383293        6.8819394763        6.1082009952
  H        14.7680009690        6.8497034616        4.3279469672
  C        15.8562919238        5.4473398041        5.5057213337
  H         7.6218794855        7.1118411149        2.5059259880
  H         8.0864638247        6.1272651326        1.1601885659
  C         6.2861703407        5.4105242929        2.0053514905
  N        11.6778291444       -1.0403825528        1.9052891110
  C        12.2551766059       -0.9070835518       -0.3254445954
  C        12.4676379118        1.2421675534       -1.5289024392
  H        12.2536694569        2.9965300460       -0.3470823451
  H        14.3221405527        2.4480918885       18.3157196703
  H        12.6618530761        1.9184442327       17.7955014501
  H        13.2854950602        3.5250403968       17.4327950712
  S         6.8134817065        5.9292063377       17.9998397314
  C         6.7117689082        8.6021769547       18.5507469079
  H        15.9381973029        4.5873713160        4.8284976703
  H        16.7047536440        6.1293575633        5.3262349318
  C        16.0688069386        5.1323702988        6.9655267238
  H         6.0875105054        4.6450344846        2.7221461342
  H         6.1549922101        4.9253044831        1.0385094592
  C         5.0333134619        6.3413380530        2.2770635717
  S        11.8141748837       -2.5882458403        1.4460534159
  N        12.2381298441       -2.3123481044       -0.1368103316
  C        12.5190780874       -0.2216526671       -1.5552603968
  H        12.5670158158        1.8778029659       -2.4003364717
  C         6.6558388085        6.6512517763       19.6223120326
  N         6.5038056912        7.9387001239       19.7228636037
  O         6.7146570276        9.8002521720       18.3521452515
  H        15.7750116385        5.9183159907        7.6322630551
  H        15.4390291005        4.2616990314        7.1178898647
  C        17.4819571878        4.6964860898        7.3930284981
  H         4.1377017934        5.7533537269        2.3296151609
  H         5.1309128893        6.9221117128        3.1892243843
  C         4.9505522030        7.3765393483        1.0679218759
  C        12.8243714664       -0.9667948296       -2.7215075384
  S         5.8508005307        5.8366692743       21.0445545636
  C         6.3360537739        8.6194586684       21.0382553082
  H        17.4939815808        4.4896464675        8.4508076537
  H        17.7191591957        3.6583635662        6.9997702563
  C        18.5225920447        5.8046096832        7.0061018606
  H         4.7347325474        6.8566671114        0.0800561577
  H         5.9053406386        7.9268331934        0.9064133590
  C         3.8529733259        8.3434353512        1.2279542029
  H        12.7042811256       -2.0783578723       -2.6125741899
  C        13.3228436787       -0.5926404949       -3.9513142852
  H         5.6325323636        8.2177158768       21.7425255748
  H         5.8444835548        9.6288914226       20.9495105758
  C         7.6666583347        8.8568049071       21.6973604734
  H        19.0383490581        6.0120475073        7.9260046468
  H        18.0536117191        6.7544529975        6.7147425115
  C        19.5913533988        5.2902646370        6.0893136090
  H         3.4863719394        8.6593816325        0.1988004835
  H         3.1390848864        7.7787012368        1.7805912684
  C         4.2412518661        9.5599301962        2.0442436443
  S        13.7224129163        0.9755370313       -4.5173613626
  C        13.5313990338       -1.6902655816       -4.9324445617
  H         7.6197596129        9.4792773209       22.5667272532
  H         8.2772074103        9.4284904933       21.0226891117
  H         8.2365065577        7.9273328228       21.9820381853
  H        20.3551783440        4.7971369549        6.5934232836
  H        19.1104319364        4.5572894495        5.4958918939
  H        20.0438943174        6.0890152642        5.4283388112
  H         5.1403521710        9.9356665028        1.6821200437
  H         3.3921284345       10.3233974780        2.1069861887
  H         4.2729747473        9.2950276347        3.1249432036
  C        14.2064436582        0.2113718693       -5.9473907108
  N        14.1697956169       -1.1347007150       -6.0093125597
  O        13.1061715799       -2.8723314220       -4.8685853651
  S        14.8401067293        1.0144053627       -7.4085779467
  C        14.3502617295       -1.9155413066       -7.2440949121
  H        14.5081832472       -2.9246793085       -6.9893480687
  H        15.2391987892       -1.5567558041       -7.8124778563
  C        13.0337169650       -1.8183366766       -8.1066579452
  H        12.4025596508       -0.9547071405       -7.8109924440
  H        12.3721898246       -2.7096721414       -8.0671114570
  H        13.1846696991       -1.5063553470       -9.1602884561
  H        -3.3007675337       15.2165083346       15.6902727668
  C        -3.0827545036       14.2636785843       16.2447267976
  H        -4.0068581981       13.7052132131       16.5434460334
  C        -2.2333472048       14.5493948425       17.5180183974
  C        -2.2112954015       13.3115780964       15.3389239150
  C        -2.5229646543       13.5514761225       18.7014760160
  H        -1.2061698524       14.4241663395       17.2644613874
  H        -2.3403780999       15.6174067252       17.8681584182
  H        -1.2184197415       13.7331976455       15.1377081919
  H        -1.9836590573       12.2814560112       15.6677741226
  H        -2.6076000489       12.9693816561       14.4019483863
  C        -1.3768906791       13.2803042930       19.6176521391
  H        -2.9136123273       12.6015512488       18.2409797416
  H        -3.2350787752       13.9495624869       19.3552574292
  C        -1.8501057168       13.1065932993       21.0378970667
  H        -0.9174679649       12.3057281051       19.2992112880
  H        -0.6719899747       14.0226626462       19.5457569549
  C        -0.6988698779       12.5199271671       21.8548206581
  H        -2.7026525802       12.4998556150       21.2093072802
  H        -1.9884436601       14.1310923184       21.4717105006
  C         0.4084390073       13.5719414422       22.1960913455
  H        -1.1407929440       11.9906102917       22.7113849163
  H        -0.3221767427       11.7878937035       21.1809395387
  C         1.5593593866       12.8375246530       22.9131204210
  H         0.7591468299       14.0033705065       21.2463558884
  H         0.0610642862       14.4462684148       22.7146175964
  C         2.0127433109       11.4815143418       22.3168235642
  C         1.0591843208       12.1632992472       24.1742350500
  C         2.7984038913       13.7338942576       23.1837579130
  C         1.7338772250       10.4302111233       23.1430609428
  C         2.6183991258       11.1205194345       21.0870238046
  C         1.2149995153       10.8465992036       24.3312189905
  C         0.5485184342       12.7861993062       25.3256526582
  H         2.9053962152       14.3524624213       22.3464841038
  H         2.6500879562       14.4954855916       23.9257338087
  C         4.1018611722       13.0329835466       23.6080420515
  S         2.1533492595        8.9197220377       22.3862926497
  C         2.7134485576        9.7974364054       20.9550555679
  H         2.8731344024       11.8375563698       20.3285136685
  C         0.8011067642       10.2159201910       25.4735083256
  H         0.4022078756       13.8772795370       25.2333132546
  C         0.2335670016       12.2089410799       26.4702603972
  H         4.3235314800       12.0821615336       23.0750289309
  H         3.9997555246       12.7471281288       24.6664307719
  C         5.3574921114       13.8624258647       23.6845056123
  C         3.0994595570        9.1026447941       19.7180193685
  C         0.2381104817       10.8421907061       26.5951464768
  H         0.8206741443        9.1299766542       25.4208958024
  C        -0.1098209883       12.6342154395       27.7330079298
  H         5.9864005101       13.2199551678       24.1827829658
  H         5.3479108761       14.6937712517       24.3006982911
  C         5.8187759921       14.1378700842       22.2859262645
  C         2.9910717193        7.6959190024       19.4914121261
  C         3.5110642291        9.9864432155       18.5689110132
  C        -0.2193569305       10.1838644654       27.8308357736
  C        -0.4529710819       11.5331483712       28.5102071692
  S        -0.3358906215       14.1624093755       28.4992307463
  H         6.6936039625       14.8255327382       22.4973693903
  H         5.0028865352       14.5972356887       21.7402242959
  C         6.4498979942       12.9353744705       21.5560006462
  N         2.5811209660        6.7691745184       20.3574191598
  C         3.1369419075        7.1646949503       18.2263142468
  C         3.7153343464        9.3919784022       17.3015831416
  H         3.6380649800       11.0691333456       18.6835175246
  C         0.8628104865        9.3994710395       28.6000269084
  C        -1.5559435767        9.4646346091       27.7498905534
  C        -0.8198226107       11.9663410508       29.7884587102
  C        -0.8026707514       13.3316120557       29.9340841898
  H         7.5210832359       12.9273183924       21.5947256678
  H         6.3136253112       12.0062852985       22.0511887173
  C         6.2022127429       12.9783830581       19.9710376286
  S         2.5834909386        5.2755780996       19.6428242460
  N         2.8274231168        5.7861729543       18.1131875385
  C         3.4538969430        7.9817510766       17.0729753890
  H         4.1406328309       10.0818285874       16.5202919104
  H         1.1950119610        8.5040693603       28.1085706937
  H         0.3852861962        8.9980979125       29.4606826036
  C         2.0755562940       10.2337180068       29.1519710542
  H        -1.3708949511        8.7145965619       27.0594196239
  H        -1.7299767782        8.8864515513       28.6394319991
  C        -2.7149761318       10.3084299152       27.3138862401
  H        -0.9948645616       11.2099723255       30.4923923862
  C        -1.1759718565       14.0924038669       31.2052171098
  H         5.6188923693       13.7813239878       19.5952313782
  H         5.7203134082       12.0553842405       19.7113544626
  C         7.4952544699       12.9384287791       19.2567013261
  C         3.6194855260        7.2154350664       15.9108253965
  H         2.3770837833       10.7452793939       28.2012134987
  H         1.7399972740       10.9433348236       29.9108279096
  C         3.2315430930        9.4621091905       29.6692043203
  H        -2.5736116377       10.8155701920       26.3976499560
  H        -2.9518625993       11.0483015017       28.1504827579
  C        -3.9674359145        9.4698478487       27.2094537101
  C        -1.1799669228       15.5378112851       31.3947407123
  C        -1.5888411049       13.3352011183       32.4139369245
  H         8.0214004976       13.9083304260       19.4815369931
  H         8.1841665876       12.0587836355       19.3216565274
  C         7.1933038925       12.9760204103       17.6983871345
  H         3.0942336342        6.2646687115       15.9034605329
  C         3.9723530487        7.5977768223       14.6472150535
  H         3.5895966480        8.8150010860       28.8763727274
  H         2.7846856516        8.8458436531       30.5061853333
  C         4.4004459406       10.2305486246       30.2078453817
  H        -3.8708463950        8.7810481489       26.2805197577
  H        -4.1901770687        8.8591592008       28.1595784716
  C        -5.1818179015       10.4073871485       26.9733710570
  N        -0.7937810849       16.4507110219       30.3941973718
  C        -1.5062475834       16.1913451067       32.6101671167
  C        -1.8925177335       13.9406543782       33.6519261012
  H        -1.6969964049       12.2892818382       32.3681802453
  H         8.0770352968       12.7316595325       17.1106178649
  H         6.5159849661       12.1416245633       17.4122236181
  H         6.6968908333       13.9275192775       17.2806739139
  S         4.4049551207        9.1968215350       14.0812459065
  C         3.9192028522        6.5075108821       13.6375983702
  H         4.5020509465       11.0656002826       29.4778576401
  H         4.2168103600       10.6912589697       31.1798887110
  C         5.7694380844        9.4848517099       30.2348355727
  H        -5.0956730708       11.3691027139       27.4757636443
  H        -6.0892555242        9.9478401116       27.4032304743
  C        -5.2259251295       10.6466877324       25.4703194274
  S        -1.0408404149       17.9837029731       30.9502905305
  N        -1.5330411615       17.5678599067       32.4560270306
  C        -1.8013968213       15.4595190104       33.7797161692
  H        -2.2506760480       13.3230757994       34.4899538376
  C         4.3883653945        8.4091146385       12.4988861009
  N         4.2948998993        7.0823084859       12.4451433262
  O         3.5386330202        5.3696377885       13.8904641334
  H         6.3554973225       10.1553407172       30.8131388361
  H         6.2634410071        9.5002215986       29.2725389707
  C         5.7077764396        8.0500431299       30.8834913311
  H        -4.4384329248       11.3670414671       25.1720180481
  H        -4.9748014967        9.7069858695       24.8965687296
  C        -6.6721876504       11.0320835846       24.9477145079
  C        -2.1728203362       16.1658667233       34.9797941455
  S         4.6221497334        9.2151741161       10.9126962913
  C         4.0743700025        6.3044331729       11.2460030512
  H         5.1184106897        8.1820596792       31.8481389723
  H         5.1600763212        7.3577178112       30.2443678859
  C         7.1274011841        7.4918083704       31.1794984761
  H        -6.5427654826       11.3639162911       23.9050341261
  H        -7.0617904156       11.7374448539       25.6261473664
  C        -7.6187180253        9.8337756525       25.0103145888
  H        -1.6358261507       17.0335246109       35.0864054336
  C        -2.7303101131       15.7586048185       36.1940481778
  H         4.7409944268        6.5925881712       10.4644685668
  H         4.4741121277        5.3070471002       11.5851480599
  C         2.5695478551        6.1874548163       10.8574347393
  H         7.5905112791        8.0944838762       31.9747905386
  H         7.7332893452        7.6271483411       30.2919699629
  C         7.1218282679        6.1025250623       31.6918406124
  H        -7.6546935756        9.2454640076       24.0976480119
  H        -7.2076951107        9.1406295325       25.8134288453
  C        -9.0288425007       10.3797777259       25.4275213651
  S        -3.3406445059       14.1945374213       36.5944990468
  C        -2.7577359085       16.7744988984       37.2512932078
  H         2.4557055023        5.3602909050       10.2348605163
  H         1.8884422872        6.0447345532       11.7306671970
  H         2.3497846117        7.0803826026       10.3478935764
  H         8.0925889063        5.8017696435       32.0314912983
  H         6.8226916503        5.4005111516       30.9353168672
  H         6.3473265286        6.0444384318       32.4531743999
  H        -9.0075431347       11.2017418448       26.1708260646
  H        -9.7102667894        9.6604752609       25.8415148766
  H        -9.4876162432       10.7199759287       24.4996270613
  C        -3.7115772205       14.9320861393       38.1943870385
  N        -3.3785763073       16.2376547165       38.2792783412
  O        -2.2764434401       17.8607759185       37.2190250967
  S        -4.3559025590       14.1331747523       39.6290019766
  C        -3.6348665024       17.1054031772       39.4191059188
  H        -3.9080078166       18.1180849047       39.0380960059
  H        -4.5341246621       16.7506889398       39.8708424990
  C        -2.3913403669       16.9802536403       40.2965250774
  H        -1.5507374943       16.4480096419       39.8284328148
  H        -1.8843498556       17.8558170655       40.6380407227
  H        -2.6421716402       16.4419480557       41.2562996860
