352
i=
  H         4.3424861038        1.4775416015       12.4926715024
  C         4.0433450597        2.4300838117       12.6757038205
  H         4.9190411639        3.0992009244       12.7012168966
  C         3.0786454305        2.7654716426       11.5062031429
  C         3.3288914428        2.4888577249       14.0303551656
  C         3.8738354734        3.0877574929       10.1859410767
  H         2.4876764654        3.6632852681       11.7424364012
  H         2.3320358537        2.0041383515       11.2352227473
  H         2.8778640185        1.5385880978       14.2958041564
  H         2.5436839092        3.1716917341       13.9199584165
  H         4.0855361208        2.6787156283       14.7744173244
  C         4.4621759757        1.7738621215        9.5946931219
  H         3.2630909406        3.6128384206        9.5034584901
  H         4.6744022967        3.8214526124       10.4505470781
  C         5.2288340883        1.8717976923        8.2488002952
  H         3.6859709954        1.0621984565        9.5156453030
  H         5.0543225564        1.2932184063       10.2832887487
  C         6.5154076125        2.6961383526        8.4807849133
  H         4.5300693283        2.2470017218        7.4554494994
  H         5.5658110269        0.8520656739        7.9260064112
  C         7.6944324637        1.9112503229        9.0167953895
  H         6.8230803596        3.0840108961        7.5707988200
  H         6.3020050452        3.5668026968        9.0129973544
  C         8.9603417518        2.7431853557        9.2360745333
  H         7.8634249568        1.1027891432        8.3028481330
  H         7.4290040997        1.5089599296       10.0040971164
  C         8.5885458760        4.1243483722        9.9011201790
  C         9.5470821238        3.5237596508        8.0724467685
  C        10.0842992987        2.0757729444       10.0648035328
  C         8.8763742954        5.2372329547        9.1693485593
  C         7.8619862128        4.4559527660       11.0753123337
  C         9.4167456554        4.8557761266        7.9655304396
  C        10.0500219509        2.9710007638        6.9059184773
  H         9.6122563990        1.3026548889       10.6491986794
  H        10.7479853874        1.4994749986        9.4183752963
  C        10.9219413110        3.0033548960       10.9001828771
  S         8.4842475569        6.7169610656        9.8970867728
  C         7.8177689878        5.8049213887       11.2426706471
  H         7.5310303795        3.7346397745       11.7983039752
  C         9.7807832947        5.4991123273        6.8698031711
  H         9.9971924154        1.8804569943        6.9433458826
  C        10.4092231119        3.6411845675        5.7462286350
  H        10.3586402515        3.5961209403       11.6334180867
  H        11.3955978039        3.7171858191       10.2234420878
  C        12.0717534999        2.3498682890       11.7592615780
  C         7.2998571081        6.5502391886       12.5041954294
  C        10.3376725464        4.9587622481        5.6935684579
  H         9.6545649745        6.5241463088        6.9257524859
  C        10.8025899835        3.3004437798        4.4797813996
  H        12.9411315217        2.9837039119       11.5221915397
  H        12.2037905175        1.3321519920       11.4261491389
  C        11.7313662213        2.3209944230       13.2579992663
  C         7.4147206527        7.9239967386       12.7779487165
  C         6.7912874820        5.7089521474       13.6246423683
  C        10.7099770331        5.6602504846        4.4512562726
  C        10.9703451018        4.4136256553        3.6454257795
  S        11.0977883114        1.8214077226        3.7313045481
  H        11.4070336559        3.2752622045       13.7847599455
  H        10.9143200238        1.5774180192       13.3767232740
  C        12.9371501348        1.7764349891       14.0760323536
  N         7.7104800054        8.9202889925       11.7539840318
  C         7.1857589530        8.4831961210       13.9935620923
  C         6.5662709656        6.3152295917       14.8237672370
  H         6.6646176142        4.6386130255       13.5062084980
  C        12.0197028110        6.5094347343        4.6123304364
  C         9.4994477648        6.3911234850        3.8236052578
  C        11.2571634070        4.0150137794        2.3472774372
  C        11.2439308968        2.6304946190        2.2533307215
  H        13.5284390825        2.6163739003       14.3303268863
  H        13.6368801673        1.2926440273       13.3873860869
  C        12.5770623222        1.0062166503       15.3273539184
  S         7.8447667245       10.3817835373       12.4624004988
  N         7.5195312633        9.8795988048       14.0136591844
  C         6.8302623989        7.7370250398       15.1520680648
  H         6.2764996903        5.5772614611       15.6131618791
  H        11.9498777664        7.2793443014        5.3663245846
  H        12.3100682286        7.0634411052        3.7121302616
  C        13.2883461003        5.6677213848        4.9406557311
  H         9.1229652188        7.0072260526        4.5848788024
  H         9.7623421764        7.0920496302        3.0065975379
  C         8.2949299697        5.4789536745        3.3293752741
  H        11.4836686033        4.8300462048        1.6548179473
  C        11.5584180129        1.9389816830        0.9441572222
  H        11.8602358654        0.2612979591       14.9253149968
  H        13.3966712567        0.4277166560       15.7467161321
  C        12.0058256022        1.8555516664       16.4960975136
  C         6.6956608518        8.5004610595       16.3817972748
  H        13.1502878406        5.2357815278        5.9657542779
  H        13.5117711447        4.8384424756        4.2510166473
  C        14.4534336731        6.5433845717        4.9418400754
  H         8.0714163508        4.9801004878        4.2558876478
  H         8.4907778007        4.6938137949        2.5693226937
  C         7.1082724954        6.2585523711        2.6965179171
  C        11.6448514426        0.5422205274        0.8430283103
  C        11.5565124419        2.6117629721       -0.4028112539
  H        11.5371800795        1.2499328723       17.2138495487
  H        11.3209928706        2.6237508998       16.0940513892
  C        13.1420272689        2.5197351865       17.2885704041
  H         6.6161753044        9.5226502458       16.2653741643
  C         6.3870644954        8.0259260303       17.5889233146
  H        14.5293380584        7.4536318802        5.6522281886
  H        14.4692826130        6.9135283986        3.9498365506
  C        15.6254454199        5.6913760639        5.0794029183
  H         6.9014861962        7.0785577106        3.3125029319
  H         7.4701912606        6.5732542566        1.7745083496
  C         5.9710450526        5.3086274235        2.3126606063
  N        11.4379247472       -0.3887275844        1.9121786014
  C        11.9469001328       -0.1236510754       -0.3186922248
  C        11.8119382167        1.9527814551       -1.5945868444
  H        11.4500447473        3.7087781106       -0.3923289972
  H        13.9621571816        2.9462848538       16.7621703015
  H        13.5198389229        1.7145021919       17.9720080829
  H        12.7314212191        3.2395729009       18.0238774077
  S         6.1747169111        6.3983736605       18.0423801070
  C         6.3099135576        8.9876964695       18.6465766780
  H        15.6971239765        4.6817158201        4.7092663569
  H        16.3607657561        6.0658784289        4.4026880671
  C        16.0762894520        5.8589005686        6.4735351283
  H         5.5391842306        4.9070141085        3.1629482816
  H         6.3798741951        4.4794567048        1.7278561206
  C         4.6148454780        5.7620506219        1.6494693688
  S        11.6534969280       -1.8373592079        1.3755302585
  N        11.9888658852       -1.4799294241       -0.1810500915
  C        12.0796127728        0.4776292367       -1.5770895154
  H        12.0691088817        2.5268558515       -2.4047718870
  C         5.9266800547        7.0293639571       19.6749339511
  N         6.0047904923        8.3554801901       19.7546068673
  O         6.5019946139       10.1694243964       18.5097189151
  H        16.2662391918        6.8510466332        6.6047854934
  H        15.2750635636        5.8315676740        7.2055041007
  C        17.1728399960        5.0163256738        7.0465478463
  H         4.7313032796        5.7795512255        0.5857239183
  H         3.8456278787        5.0579292275        1.8893205154
  C         4.2164489154        7.2042012248        2.0494915668
  C        12.5124778922       -0.3241630423       -2.6525277098
  S         5.3374051376        6.0128584716       20.9934758026
  C         5.8098399611        9.0568504631       21.0596327487
  H        16.7615857787        4.4451955440        7.8574452194
  H        17.4854008653        4.1657148897        6.3544338673
  C        18.2965875551        5.8849839947        7.6607785562
  H         4.6365811918        7.5360332380        2.9321505726
  H         3.1088354038        7.1308411276        2.1445941083
  C         4.5709978257        8.3392709198        1.0919461968
  H        12.1128592110       -1.3253864369       -2.6662463321
  C        13.0285487515       -0.0546666606       -3.9086696705
  H         4.9700083049        8.6969794544       21.7138869876
  H         5.4359534081       10.1080204144       20.9790401905
  C         7.1275170322        8.9768871642       21.9393082146
  H        18.6577903414        5.3712314223        8.5542869752
  H        17.8640749543        6.9289567757        8.0126661549
  C        19.4119399152        6.1264424657        6.7686022389
  H         5.7060520261        8.4365834360        1.0581738254
  H         4.3782658928        8.0597431878        0.0830043772
  C         3.9268398150        9.7044987283        1.4154051219
  S        13.6410918751        1.4925806210       -4.5126034421
  C        13.1772672889       -1.1768817184       -4.8581436963
  H         7.0861355533        8.4974803910       22.9310542510
  H         7.3849912084       10.0039252761       22.2224369706
  H         7.9400546836        8.4797893306       21.2979025661
  H        20.0223231223        5.2641303882        6.5518991006
  H        19.0454150503        6.6268927285        5.8464223759
  H        20.1421111890        6.8319099425        7.2529058410
  H         2.8314731359        9.6802572877        1.2818957409
  H         4.2074983116       10.1394044350        2.3438727302
  H         4.2613583501       10.3652955372        0.6903450877
  C        13.9719779522        0.5725281632       -6.0228223581
  N        13.8601744047       -0.8087004131       -5.9531604185
  O        12.7049663929       -2.3042141359       -4.6455527638
  S        14.7653575142        1.2630024570       -7.4649277040
  C        13.9842679618       -1.6456839760       -7.1298192833
  H        14.1474470273       -2.7619763066       -6.7857202520
  H        14.8093044695       -1.3594722194       -7.7348950487
  C        12.7245236673       -1.5021939517       -7.9910612826
  H        11.8049815365       -1.5618525844       -7.3567285395
  H        12.6551585211       -2.2250606899       -8.7508873524
  H        12.6851166886       -0.4996424964       -8.4685035085
  H        -3.9301008986       14.3813298151       16.6054108412
  C        -3.4482564870       13.4036747846       16.7086761113
  H        -4.2650409741       12.9607450849       17.2723996677
  C        -2.0907427423       13.3808202262       17.4682474092
  C        -3.2639937966       12.9458097004       15.2721119200
  C        -2.1599373645       13.8160700940       18.9323911890
  H        -1.6263213588       12.3528767074       17.4294951082
  H        -1.3935998309       13.9948327153       16.9642117624
  H        -3.1108475802       11.8551997008       15.2519727959
  H        -4.2181650659       13.3275712388       14.9139025501
  H        -2.3866151712       13.3036332108       14.8023836836
  C        -2.4843752356       12.7057103491       19.9441075532
  H        -2.9396654444       14.4978712524       19.0763732527
  H        -1.2351820472       14.2118990071       19.3718726490
  C        -2.7250628108       13.2096428861       21.3699222700
  H        -3.4078564276       12.2275623444       19.5617369286
  H        -1.7121774315       11.9537156016       19.9616315225
  C        -1.6251182768       12.8168710100       22.3625218105
  H        -3.6497765494       12.8591957193       21.7995698921
  H        -2.6154984385       14.2910854016       21.4824463454
  C        -0.3296704826       13.6046684122       22.4726473853
  H        -1.9833684644       12.8609596838       23.3776501446
  H        -1.3916476908       11.8183837498       22.1142690670
  C         0.8299238768       12.9415518503       23.2427774690
  H        -0.0793674657       13.8506800021       21.4352920563
  H        -0.6439020831       14.4770912822       22.9494615136
  C         1.0924065382       11.6067450646       22.6055098927
  C         0.3704873592       12.2577686509       24.4987824512
  C         2.0947535290       13.8137022296       23.3011224239
  C         0.8179026269       10.5001623890       23.3794463486
  C         1.6680963606       11.1875928586       21.3887252489
  C         0.3446332923       10.8934899121       24.6154515936
  C        -0.0989061687       12.9350986915       25.5928207190
  H         2.1706540874       14.2475359831       22.2702726498
  H         1.9647100684       14.6684859008       23.9935017705
  C         3.3589380108       13.0591053550       23.6465393281
  S         1.4002664824        9.0107241948       22.7402753070
  C         1.8168259026        9.8105333785       21.2947459101
  H         1.9377544853       11.9160206440       20.6660858868
  C        -0.1054760499       10.2677585284       25.7426471135
  H        -0.2428642324       14.0064861312       25.5459234563
  C        -0.4251624088       12.3425897155       26.7741633335
  H         3.5443166236       12.1934390174       23.0087234470
  H         3.2089641497       12.5530813188       24.6350026298
  C         4.6997314452       13.8089438655       23.7668542030
  C         2.4980422176        9.1306183214       20.1929333222
  C        -0.4565548681       10.9604406026       26.9172576029
  H         0.0678946334        9.2171663261       25.8952408806
  C        -0.8589360931       12.8226233792       28.0553922193
  H         5.2238845659       12.9840362364       24.2283291044
  H         4.5318829729       14.6769451163       24.4755843964
  C         5.3406263729       14.3229576786       22.4485986297
  C         2.3949151433        7.7780106312       19.8866050617
  C         2.9580095091        9.9541579441       19.0198373845
  C        -0.7968263634       10.3937351372       28.2607526112
  C        -1.0401196732       11.7649897472       28.9276641480
  S        -1.1623423892       14.4319948994       28.7680604799
  H         5.9512968105       15.2037536145       22.5858149928
  H         4.4913949716       14.7162151938       21.8973319826
  C         6.2017231974       13.1938719368       21.8291109617
  N         2.0870095011        6.7888280684       20.7865410659
  C         2.7140099874        7.2557085229       18.6582627026
  C         3.3147356401        9.4289471068       17.7930056201
  H         3.2150848803       10.9778107649       19.1966338402
  C         0.3901263933        9.5632224026       28.8748244882
  C        -2.1630464817        9.5345073204       28.2245573947
  C        -1.5007492164       12.2795502710       30.1381016512
  C        -1.4367438613       13.6296498812       30.2873135277
  H         7.2647008612       13.2895182389       22.0158803691
  H         5.9908471422       12.1654969753       22.2979029315
  C         6.0997503156       13.0681709264       20.3471958357
  S         2.0659254044        5.3539999964       20.0721584820
  N         2.6187310728        5.8425339901       18.6263326093
  C         3.1156032688        8.0127236003       17.5064936853
  H         3.4272315002       10.2336784556       17.0291464455
  H         0.7825521514        8.8753825298       28.1291345293
  H        -0.0206118049        9.0228775038       29.7676949471
  C         1.6161504199       10.3869962083       29.3376713653
  H        -2.0748921672        8.7215131401       27.5369675290
  H        -2.3700889642        9.0249431853       29.2266159195
  C        -3.3716290967       10.3067657412       27.8991385023
  H        -1.6525445869       11.5280283221       30.8773195466
  C        -1.8401284118       14.4293748712       31.5433078592
  H         5.6236614711       13.9552889860       19.9787787940
  H         5.3881121268       12.3185759071       20.1389072000
  C         7.4877494361       12.9421055247       19.6638470852
  C         3.2814181949        7.3372460753       16.2287646046
  H         1.8801169520       10.8961987753       28.4112243345
  H         1.3770907280       11.2028206491       30.0021565827
  C         2.6858005480        9.4417920675       29.6772042462
  H        -3.0794113920       10.9670900963       27.0538809466
  H        -3.5439816324       11.0075344348       28.7996248508
  C        -4.5529172762        9.4037071340       27.5815022698
  C        -1.8444551670       15.8593000703       31.6285886134
  C        -1.9832121200       13.7110232713       32.7774783570
  H         8.2051332707       13.5854771950       20.1400914353
  H         7.7491674379       11.9016653536       19.9178190884
  C         7.5280284390       13.1580375444       18.1540584856
  H         3.1377455671        6.2428076266       16.1420514893
  C         3.5375631542        7.8671870563       15.0372119043
  H         3.1673848513        9.0476616928       28.7842842811
  H         2.1629368710        8.6261521392       30.1378126496
  C         3.7413433871       10.0373946438       30.6178649715
  H        -4.4138138085        8.4888097267       26.9792848643
  H        -4.8413603460        8.9082393668       28.5219307363
  C        -5.6673913867       10.2708472052       27.0232270280
  N        -1.5810319633       16.7629221200       30.5865318719
  C        -2.1073315938       16.5066261578       32.7728211568
  C        -2.1801270528       14.3846418541       33.9981487953
  H        -1.8710111500       12.7062875666       32.8154605760
  H         8.4019597561       13.7211606199       17.9985766744
  H         7.8488760139       12.2581115055       17.7180333399
  H         6.7119282740       13.6540263701       17.6571576632
  S         3.8310633481        9.4543109128       14.5612550682
  C         3.4313669395        6.8914305719       13.9302250708
  H         3.9353008513       11.1285247557       30.5389660828
  H         3.3501526910        9.8244873966       31.5723585017
  C         5.0762727963        9.3416638093       30.3927773336
  H        -5.2490137501       11.0632061406       26.4103458683
  H        -6.1115413866       10.8834906667       27.7985582970
  C        -6.6286104437        9.5254251879       26.1549612655
  S        -1.4836215045       18.2359726016       31.1903250275
  N        -1.8744599670       17.8385717902       32.7102828651
  C        -2.3125860073       15.8715922571       34.0423549731
  H        -2.2887884326       13.7998230866       34.9049071475
  C         4.0218744375        8.8036213352       12.9317825017
  N         3.8887584508        7.4538617490       12.8304906593
  O         3.1979066242        5.6658331084       13.9922394221
  H         5.7482980623        9.8401068643       31.1142633775
  H         5.5009787234        9.6839377684       29.4557243228
  C         4.8098646660        7.7694424203       30.5894969543
  H        -6.1848598750        8.8537556920       25.5486432949
  H        -7.2267490694        8.8856829282       26.8289067036
  C        -7.4384232318       10.6232196689       25.3808400860
  C        -2.6008563674       16.6330138574       35.1861264655
  S         4.4441831495        9.8147964151       11.5204384927
  C         3.9712072017        6.7372555597       11.5756720495
  H         4.0401774802        7.4830604410       31.3555540467
  H         4.3559235761        7.2656396925       29.7426848643
  C         6.0876628485        7.0709475552       30.9723686068
  H        -6.7251834706       10.9446054077       24.6576112401
  H        -7.6332519391       11.5115958570       26.0803658727
  C        -8.7263858563       10.0718271572       24.7359827846
  H        -2.2662658227       17.6936611345       35.1762092258
  C        -3.1398134530       16.3122010882       36.4163075869
  H         4.6834909068        7.1041229413       10.8763040309
  H         4.4102545358        5.7666013859       11.8199969564
  C         2.5973740957        6.5459564224       10.8873105951
  H         5.8996099540        6.1344673323       31.4529308872
  H         6.6412663216        7.6254412999       31.7282585192
  C         7.0589222313        6.8014025991       29.8563771114
  H        -9.1802318866       10.6319823954       23.9815801103
  H        -8.3875470224        9.2048052999       24.1895837507
  C        -9.8306063832        9.7793114580       25.7529366849
  S        -3.6956515084       14.7622477400       36.8475591017
  C        -3.2852858321       17.4174773775       37.4010290081
  H         2.0204178090        7.4362917462       10.9049404255
  H         2.6235574950        6.1332437975        9.8619965969
  H         2.1109345389        5.7745899469       11.4081700409
  H         7.5900218296        5.9215238410       30.1989200260
  H         7.7937594328        7.6160559522       29.7040535299
  H         6.4867043245        6.7112675399       28.8978929897
  H        -9.6554042902        8.9312517217       26.4475456304
  H       -10.7206793518        9.4676539850       25.1973991279
  H        -9.9054143907       10.7523473193       26.2410746179
  C        -4.0932651473       15.5302449157       38.3840610283
  N        -3.9205467587       16.8974517653       38.4353944755
  O        -2.9794271590       18.6149359420       37.2083650615
  S        -4.8646499938       14.7974412752       39.8092340345
  C        -4.1679340909       17.6014267921       39.6729912135
  H        -4.2527559433       18.6279632828       39.2862922929
  H        -5.1199041459       17.3640656237       40.1727061836
  C        -2.9010344595       17.5376477906       40.5849633221
  H        -2.0560351101       17.3140898442       40.0002133702
  H        -2.7298160302       18.4871859516       41.0887029854
  H        -2.9885044809       16.7442673667       41.2650471508
