352
i=
  H         3.5778474812        3.8923972088       12.2650647436
  C         2.9163742166        3.0777239880       12.3420372822
  H         1.9357091230        3.3789546713       12.2841022336
  C         3.3443468206        1.9611988258       11.2704426526
  C         3.0249559450        2.4071971136       13.6721907559
  C         4.0988814579        2.5066690299       10.1761325121
  H         2.5021530243        1.4474742968       10.8440918273
  H         3.9528864609        1.2261908899       11.7727374999
  H         2.2859826378        1.6061283091       13.7237502663
  H         2.8776874022        3.1079187171       14.4694728092
  H         3.9426553057        1.8840426198       13.7311017741
  C         4.6655842594        1.4065595076        9.2440638266
  H         3.4485646031        3.1636163637        9.4976211962
  H         4.8407347635        3.1793553216       10.4945338401
  C         5.4076067487        1.8323066501        7.9828354675
  H         3.8351326801        0.7514159594        8.9356544572
  H         5.2840051698        0.7622183128        9.9277047553
  C         6.6496094479        2.6331129839        8.3263471908
  H         4.7893276510        2.4207855522        7.3714371867
  H         5.6471406397        0.9108107506        7.4302853730
  C         7.7925219123        1.8995474156        9.1115957386
  H         6.9691328402        2.8181770952        7.3017054506
  H         6.3497151549        3.6956943151        8.5989935081
  C         9.1246748569        2.7685323773        9.1852316739
  H         8.0259470474        0.9765658071        8.6944634119
  H         7.4398089486        1.6849330809       10.0981661638
  C         8.7355822621        4.1381135025        9.7968776452
  C         9.4251600319        3.4391969164        7.8599700120
  C        10.2494611198        2.1645829345        9.9683451362
  C         9.0476191328        5.2105635553        8.9608059446
  C         8.3457427107        4.5130506460       11.0243174400
  C         9.5077264429        4.7608577525        7.7169597261
  C         9.8368885547        2.8739190973        6.6142719775
  H         9.8539068569        1.9986465480       10.9111199551
  H        10.5646225205        1.1610611581        9.6795623468
  C        11.5834739063        2.9427978023       10.0537061362
  S         8.6284158168        6.7288976214        9.6417245815
  C         8.1852606694        5.8991341900       11.1438352382
  H         8.1496433240        3.7577062045       11.7239683105
  C         9.9221713763        5.4267676727        6.5616218605
  H         9.8404416635        1.8049353619        6.6451305585
  C        10.2922032346        3.4454332626        5.5028115463
  H        11.1944934128        3.9242044897       10.4281246857
  H        12.0682861751        3.0255059408        9.0751171464
  C        12.6103906780        2.3669483206       11.0616565407
  C         7.7238784892        6.6054736769       12.4107324037
  C        10.3271627408        4.7563977995        5.4160031444
  H        10.0540365669        6.5329047362        6.6062665851
  C        10.8242778564        3.0342686884        4.3036497928
  H        13.4158454083        3.0758680565       11.1494360047
  H        12.9303537291        1.3626055878       10.8771588359
  C        11.9710635568        2.3376667860       12.4208475271
  C         7.6535460618        7.9802177212       12.6531563058
  C         7.2823948699        5.8051046467       13.5349468481
  C        10.8463990368        5.4682366946        4.2189017231
  C        11.0996620500        4.1596134288        3.5397985431
  S        11.0592925406        1.5031927763        3.6285471718
  H        11.2458594290        3.1724403050       12.6605168321
  H        11.3450113931        1.4517897439       12.5232261045
  C        12.9400250383        2.5240780479       13.5616890097
  N         8.0907592342        8.9778698618       11.7453941039
  C         7.3951136370        8.5310850170       13.9173929168
  C         6.9087063268        6.3640573059       14.8074668543
  H         7.1483495616        4.7564743054       13.3504991207
  C        12.1643637359        6.3396515264        4.3722664177
  C         9.6988738692        6.3380246602        3.5367084958
  C        11.4820317410        3.6834542048        2.2586701135
  C        11.5683188317        2.2697288220        2.1832386761
  H        13.5315503511        3.4419963475       13.4472195967
  H        13.5550578941        1.6388147254       13.4563659416
  C        12.3567240907        2.5934804702       14.9741718750
  S         8.1021212724       10.4212918688       12.4800787065
  N         7.4877360963        9.9244029679       13.8959542017
  C         7.0262584946        7.7977746840       15.0398873578
  H         6.4850589121        5.7977985949       15.5898964448
  H        11.9377246265        7.1558679696        5.0063920418
  H        12.4225582882        6.7434165163        3.3722377495
  C        13.3768305865        5.5573966204        4.9213941945
  H         9.5492997628        7.1742159303        4.1951322286
  H        10.0462320166        6.7244670630        2.5322709174
  C         8.4621576327        5.5401299545        3.1790149817
  H        11.7252258026        4.3547104324        1.4613299233
  C        11.8867181811        1.5804750652        0.9101179543
  H        11.7214409345        3.4970533652       15.0243698721
  H        11.7408005254        1.7538741909       15.0916463838
  C        13.4215102890        2.7374317941       16.0243498998
  C         6.8024521670        8.4933010588       16.2563632060
  H        13.0259872815        5.0116406080        5.7561958962
  H        13.6376488161        4.8369530461        4.1263776860
  C        14.4651512543        6.4512652306        5.2941651096
  H         7.9604463685        5.0396376952        3.9753684823
  H         8.7083635219        4.7668541671        2.4566369110
  C         7.3707908279        6.4281429233        2.6293317756
  C        11.8387400457        0.1854120643        0.7043568109
  C        12.1577160154        2.3540375595       -0.3491980719
  H        14.0622480590        3.5347079967       15.6409378185
  H        14.0532025646        1.9317697991       16.0651460024
  C        13.0262082845        3.1206633992       17.3762696373
  H         6.9949284170        9.5657272834       16.2347463292
  C         6.3987194445        8.1244520317       17.4866198956
  H        14.0486683062        7.1513957257        6.0276751184
  H        14.8387149621        7.0365192768        4.4183971590
  C        15.5680840848        5.5782205953        5.9008635205
  H         7.0088215756        7.0428742924        3.4817251756
  H         7.7679051547        7.0665953102        1.8330130085
  C         6.1779963878        5.5796140993        2.1751024183
  N        11.5750641040       -0.7236253111        1.7323391885
  C        12.0750179606       -0.4158517210       -0.4957795114
  C        12.3264033247        1.7720958339       -1.5652286778
  H        12.0020375429        3.4166988874       -0.3004139259
  H        11.9517992997        3.3217124469       17.4254868475
  H        13.5879704667        3.9011400516       17.6994462626
  H        13.2230882946        2.3560733093       18.2345707249
  S         6.1199249220        6.5564136414       18.0955647447
  C         6.4348298531        9.1548481720       18.5436009783
  H        15.1306632233        5.2140480376        6.8674271776
  H        15.7618701989        4.8880846995        5.1025012159
  C        16.8002373531        6.3334096023        6.4403345154
  H         5.7374026528        4.9697477025        2.9793178293
  H         6.4646976694        4.7761070113        1.4986117835
  C         5.1239003566        6.3720793130        1.4481543478
  S        11.8177850485       -2.1988877678        1.1781872040
  N        12.1385707923       -1.8085918816       -0.3304290116
  C        12.3241402399        0.3136001481       -1.6891063936
  H        12.3204345220        2.4446602511       -2.4113541830
  C         5.7785315500        7.2129294200       19.6352927343
  N         6.0329061299        8.5466319012       19.6862158879
  O         6.6087313047       10.3882743738       18.3718762500
  H        17.1072163273        6.9458354785        5.5627904131
  H        16.5049953003        7.0071620307        7.2255135384
  C        17.9029386995        5.3323967953        6.5579040703
  H         5.5554642726        6.7726594037        0.4808036364
  H         4.3356212792        5.7082506046        1.1158044188
  C         4.5780262172        7.6001833165        2.3421270226
  C        12.6588672875       -0.4491465951       -2.8701564973
  S         5.6574203528        6.3396320333       21.0758163472
  C         6.0166164829        9.2525012048       21.0151720556
  H        17.5486701973        4.4907507741        7.0969391911
  H        18.1205325193        5.0713364150        5.5480590705
  C        19.1159655823        5.8544060546        7.2937051251
  H         5.2893729505        8.0097084057        3.0728908323
  H         3.7739370708        7.1694804823        2.9524023975
  C         3.9110582451        8.6593475602        1.4528919050
  H        12.5362416386       -1.5181617630       -2.8010326501
  C        13.1341427163       -0.0048765762       -4.0619315991
  H         5.1062992500        8.7886943392       21.4635840084
  H         5.7645558057       10.3070733692       20.9092288876
  C         7.3611107001        9.0679225857       21.7587507437
  H        19.2675553109        5.1830670302        8.1740875027
  H        18.8909049225        6.8397395809        7.6867586216
  C        20.4016511791        6.0880322178        6.5554957676
  H         3.8226456265        8.2534400500        0.4189834615
  H         2.8413026748        8.8197615077        1.7608281645
  C         4.5246205257       10.0108538579        1.5514789193
  S        13.4779148536        1.5608844517       -4.5301433518
  C        13.3325889815       -1.0433475452       -5.0516835277
  H         7.2058407240        8.4421879957       22.5992483091
  H         7.6894481403       10.0215557263       22.1068608688
  H         8.1182787467        8.7406030756       21.0613551219
  H        20.8678134697        5.1866305490        6.3788139197
  H        20.1919976385        6.6143991492        5.6599612406
  H        21.0468405274        6.7245536665        7.1575489125
  H         4.2072385307       10.4468447947        2.5363853764
  H         5.5827300064        9.8773815054        1.3481333825
  H         3.9181733749       10.6423917813        0.8655973220
  C        14.1349870635        0.9108097103       -5.9570855701
  N        13.9796441747       -0.4113648140       -6.0931570257
  O        13.2494718696       -2.2417258754       -4.9258277020
  S        14.9122322050        1.8813005547       -7.1932845586
  C        14.3527624184       -1.0897949432       -7.3438267630
  H        14.6684399919       -2.1095402316       -7.0260530124
  H        15.3074718065       -0.7483572061       -7.7471048223
  C        13.1641725300       -0.9016980742       -8.2901089054
  H        13.1185537309       -1.6670323192       -9.0776047337
  H        13.3224324545        0.1095753231       -8.7352258895
  H        12.2866208596       -0.9308309407       -7.7182338973
  H        -4.0239137544       14.5830530287       16.3881379391
  C        -3.7514574410       13.5251190823       16.3620910408
  H        -4.6796732797       13.1123901095       16.7001787501
  C        -2.6269429409       13.1077865143       17.2850208582
  C        -3.5635391039       13.0962687425       14.9636100116
  C        -2.9700901986       13.3633819652       18.7446292302
  H        -2.3887676626       12.0930337865       17.1441700621
  H        -1.7278487643       13.5845113774       17.0662556370
  H        -2.9680513574       12.2425124985       14.8780592637
  H        -4.5787122591       12.8200006695       14.5771200235
  H        -3.0479436228       13.8835847962       14.3202910259
  C        -1.8330714826       13.1560128980       19.7406878314
  H        -3.7431111202       12.5528711358       18.9306658603
  H        -3.4211430200       14.3302756452       18.8786624312
  C        -2.2711250585       13.1861538014       21.2064729496
  H        -1.3906031222       12.1540185674       19.4976249739
  H        -1.1286127506       13.9249427362       19.6114571504
  C        -1.2519504138       12.6320295633       22.0765653158
  H        -3.1993603669       12.6363282878       21.4777012006
  H        -2.6080550604       14.2209853801       21.4395837617
  C        -0.1607497733       13.6569035334       22.4845082000
  H        -1.7209859081       12.3051694938       23.0551110554
  H        -0.8099218434       11.7293849584       21.8409796291
  C         1.0120112508       13.1371979307       23.2920275094
  H         0.2201291506       14.0979573335       21.6224344637
  H        -0.6850828623       14.4719855431       22.9417885244
  C         1.4714042993       11.8699403819       22.6090261152
  C         0.5430851061       12.3446224327       24.5120473973
  C         2.1116757754       14.1967252623       23.5830801044
  C         1.2873675017       10.7159567491       23.3914523521
  C         2.1390589408       11.6126415388       21.4272919983
  C         0.6360205479       10.9924315532       24.5968864834
  C         0.0887588859       12.9516624948       25.6903989131
  H         2.3501464900       14.7861499756       22.7129732845
  H         1.6055180648       14.8421232482       24.3654106337
  C         3.4273987532       13.5702983099       24.1899457669
  S         1.8105814886        9.3073999503       22.6346081999
  C         2.3344692250       10.2842783660       21.2933996831
  H         2.2839756934       12.4581264367       20.7375649598
  C         0.2631617429       10.3652238487       25.7721790849
  H         0.0523615164       14.0336459782       25.7610816227
  C        -0.2866513366       12.2828336530       26.8398883228
  H         3.8224605660       12.7564889537       23.5474426277
  H         3.1418295413       13.2043144782       25.1751716317
  C         4.4651977802       14.6301905448       24.3083442526
  C         2.6808646767        9.6634382251       19.9105338311
  C        -0.3187017058       10.9498356573       26.8730262728
  H         0.3253725206        9.3264893908       25.6636081569
  C        -0.6770615853       12.6764005640       28.0656360606
  H         5.2864839386       14.2096260606       24.9948086124
  H         4.0232335309       15.4930235542       24.7565440364
  C         5.0985669799       14.8902728002       22.8768705259
  C         2.7152028381        8.2684381423       19.5814019199
  C         3.0834266103       10.5136090347       18.8196536190
  C        -0.7500733791       10.2463510875       28.1159752535
  C        -1.0291233868       11.5747936648       28.8701638973
  S        -0.8868110168       14.1763550389       28.8492556555
  H         5.6021498897       15.8329497087       22.9237585169
  H         4.2897338227       14.8717978980       22.1392307346
  C         6.1651908414       13.8115203391       22.5008257873
  N         2.4697462742        7.3017473602       20.5620171643
  C         3.0352329529        7.7226677639       18.3266103883
  C         3.2638648620       10.0178743554       17.5504758860
  H         3.1417064781       11.5747077271       18.9909995315
  C         0.4014539336        9.5382695050       28.8429331268
  C        -2.0428637053        9.4265558162       27.8952457726
  C        -1.4663502064       11.9312788572       30.1318936849
  C        -1.4270402944       13.3261571090       30.2548632026
  H         7.0698305748       14.3073162964       22.4484251310
  H         6.4115219880       13.0959427241       23.3314087718
  C         5.8881018643       12.9948659990       21.2270021824
  S         2.5969153032        5.8493849465       19.8617724396
  N         2.8897702027        6.3165869531       18.2866518904
  C         3.1806392760        8.5629375984       17.2002321291
  H         3.4767733176       10.7471638529       16.7834707572
  H         0.6433551830        8.6286330002       28.2846925557
  H        -0.0612318968        9.1544267089       29.7565611325
  C         1.6866009660       10.4467233545       29.0668795674
  H        -1.7523348581        8.4442385600       27.3609214451
  H        -2.3364625490        9.2726996864       28.9293791095
  C        -3.2530287756       10.2449287599       27.3865431512
  H        -1.6489831306       11.1160980868       30.8335263302
  C        -1.7354053800       14.0626495610       31.5622506199
  H         5.0163498263       12.3410721864       21.3159318644
  H         6.6866608865       12.2088032686       21.1390075648
  C         5.9133812087       13.8665466896       19.9798861246
  C         3.2295901565        7.9524319384       15.9453142257
  H         1.9345694137       10.9046275074       28.0949023377
  H         1.5482419313       11.1964733447       29.8974098684
  C         2.8788870110        9.5929238518       29.5194394512
  H        -3.2771697436       10.4812030153       26.3106449993
  H        -3.4275927935       11.2344259164       27.8703522389
  C        -4.5180163892        9.4266717952       27.5258426161
  C        -1.8880025413       15.4543247440       31.6482674272
  C        -1.8591977474       13.2177287467       32.8166343160
  H         4.9441807375       13.6694971672       19.5076566962
  H         5.9746099641       14.9695830641       20.3263208526
  C         6.9951663197       13.7346335752       18.8968719398
  H         3.1130678050        6.9166101702       15.9671500620
  C         3.5548982727        8.3683746526       14.6832673059
  H         3.1639532796        8.8961030068       28.7110204946
  H         2.5510985374        8.8283572286       30.2257434753
  C         4.1715430467       10.2716705227       29.9568688122
  H        -4.5070900731        8.6020905286       26.8537673331
  H        -4.4749866496        8.9871048157       28.5119747261
  C        -5.8115131607       10.2310408841       27.2250730143
  N        -1.7718856452       16.3654832659       30.6028846921
  C        -1.9686472178       16.0097804859       32.8903053814
  C        -2.1840326087       13.8222094285       34.0086902235
  H        -1.7002921589       12.1686357211       32.8095347986
  H         6.7738562431       12.9907803456       18.1658391935
  H         7.1644850123       14.7089042630       18.4471199657
  H         7.9216423627       13.3526082030       19.3242671220
  S         4.0548514943        9.9360683051       14.2394495226
  C         3.5089569163        7.3857289277       13.5955522968
  H         4.4353958838       11.0693644879       29.2794831514
  H         4.0273847245       10.7903207447       30.9076221714
  C         5.3554111264        9.3614462964       30.0303178781
  H        -5.5334099436       11.2143880783       26.8090874403
  H        -6.3049473327       10.4117761677       28.1777992057
  C        -6.7659061753        9.5363689679       26.1993237586
  S        -1.6700013434       17.8472402852       31.2441868400
  N        -1.9284217141       17.4473663062       32.8345397471
  C        -2.2252047567       15.2887549815       34.0725381433
  H        -2.3212949769       13.1964961928       34.9319800370
  C         4.2802998324        9.3269240306       12.5509455090
  N         4.0449997856        7.9650474746       12.4848213966
  O         3.1937557083        6.1855237231       13.7429035327
  H         6.3511078180        9.8811714957       30.1519014152
  H         5.4339628685        8.8141983422       29.0521556947
  C         5.2489473501        8.2515005761       31.0291050232
  H        -6.2951004701        9.0252012716       25.3217004959
  H        -7.3146723006        8.6482832787       26.6109051789
  C        -7.7286277382       10.5301762281       25.6524866370
  C        -2.4625726106       16.0366197380       35.2109900011
  S         4.7286462539       10.2131620183       11.0919099480
  C         4.2117681536        7.0724876458       11.2816211750
  H         5.1878047327        8.6440838712       32.0523039731
  H         4.2459811191        7.8259700735       30.9180402708
  C         6.3269708297        7.1807853818       30.8993393000
  H        -7.1929432839       11.0864406166       24.9248467741
  H        -7.9622179835       11.2130558015       26.3804257837
  C        -8.9462864782        9.9867229017       25.0367250338
  H        -2.1721843641       17.0966709339       35.2793284100
  C        -2.9599676241       15.6691218544       36.4510332358
  H         4.9141265667        7.5193899692       10.5760542577
  H         4.7426844489        6.2051895711       11.6094020227
  C         2.7534909207        6.8373849633       10.6488216294
  H         7.3173667178        7.5889828822       31.1251099855
  H         6.2959442023        6.7321972822       29.8439425581
  C         5.9713671441        5.9992994567       31.8431926013
  H        -9.2265109453       10.5406870947       24.1895807131
  H        -8.6747736473        8.9495186968       24.7036941394
  C       -10.0545214527        9.9396821074       26.0959372269
  S        -3.3986426514       14.0272885801       36.9368752844
  C        -3.0847436888       16.7087176703       37.4968878005
  H         2.7114081828        7.2983477743        9.6781523165
  H         2.5579419729        5.8243997096       10.5801571413
  H         2.0060563464        7.3625445180       11.1860774366
  H         6.3629345764        6.1146408465       32.8284667073
  H         6.3112537057        5.0611225127       31.3120015460
  H         4.8704779434        5.9255327917       31.8041044808
  H       -10.9755125178        9.9362791922       25.5791210556
  H       -10.1961012139       10.8186170797       26.7520863812
  H        -9.8610989369        9.1889407723       26.8235349372
  C        -3.7693922361       14.7504480128       38.4777562480
  N        -3.5860768329       16.1182244389       38.6118667937
  O        -2.7907250887       17.9130250730       37.3909235007
  S        -4.4977904416       13.9223894159       39.8783230843
  C        -3.8926138708       16.9135461497       39.7652882055
  H        -4.4461650804       17.7741987093       39.3542220825
  H        -4.5669114377       16.5070360290       40.5271944499
  C        -2.6641623512       17.3438682777       40.5107087600
  H        -2.5439261583       18.4016724636       40.3869193057
  H        -2.6198677893       17.2744881702       41.5858595549
  H        -1.7815099962       16.9189686334       40.1431160541
