352
i=
  H         2.3650081001        3.0667891890       12.8806347872
  C         2.7749419423        2.1334023739       12.5366050954
  H         2.3016211247        1.3068735750       13.0615398177
  C         2.3843929664        2.0659262251       11.0549842576
  C         4.2516907243        2.1600934898       12.8435068640
  C         3.4507353740        2.4971345307       10.0171736298
  H         1.4405971014        2.6379068603       10.8352220568
  H         2.1653448976        1.0153724440       10.8833349843
  H         4.6641644902        1.3465498462       12.4229471606
  H         4.0697313091        1.9060260413       13.8660860629
  H         4.7709017068        3.1045489758       12.6473062110
  C         4.4028897664        1.4120610554        9.5667112505
  H         2.8940945267        2.7651989450        9.1475237279
  H         3.9843733885        3.3955182624       10.2263219657
  C         5.1622605897        1.9000605257        8.3614192900
  H         3.8686873810        0.4498866816        9.2619858830
  H         5.1339956157        1.1106445841       10.3306547839
  C         6.3519946876        2.7945891032        8.6594677251
  H         4.4200751504        2.5537282902        7.8387843625
  H         5.3853213349        1.0841390266        7.6399961869
  C         7.5843131834        2.0443922093        8.9966108337
  H         6.4371261823        3.5288027369        7.8875917711
  H         6.1557340378        3.2662607680        9.6265933079
  C         8.7817632832        2.9469187951        9.2313569411
  H         7.7501053672        1.2862851765        8.2765173582
  H         7.4272263556        1.5631072315        9.9801089580
  C         8.5329769384        4.2602088495        9.9610614702
  C         9.3035501020        3.6262668407        8.0169166338
  C        10.0160599156        2.1605758892        9.8698015611
  C         8.8227197979        5.3594149205        9.1318639708
  C         8.1907142781        4.6230283346       11.2569541233
  C         9.2866049098        4.9993767131        7.8868212560
  C         9.7986224733        3.0018862181        6.8751996555
  H         9.8008170561        1.6942717118       10.8257805862
  H        10.3908082905        1.4294593314        9.2172766686
  C        11.2690326139        3.0524101711       10.0828221345
  S         8.4207910296        6.8698233437        9.8582268428
  C         7.9638157612        5.9863136375       11.3064858963
  H         8.0546413700        3.8767979468       11.9963133334
  C         9.7126708288        5.6311755728        6.7272214610
  H         9.7956223105        1.9097899957        6.7236282875
  C        10.2314507949        3.6114718022        5.6832784068
  H        11.1191825530        4.1014839245       10.2042061025
  H        11.8627761401        2.9439691002        9.1764142640
  C        12.1513675074        2.5093156694       11.2042216309
  C         7.5319252565        6.6906853499       12.5620050216
  C        10.1918187326        4.9703678034        5.5511472456
  H         9.6019887419        6.7072761120        6.6846322545
  C        10.6361160879        3.1437698064        4.4345274041
  H        13.1207976168        2.9312796775       11.0788568247
  H        12.3042084669        1.4272488018       11.2182091067
  C        11.6332217866        3.0281997599       12.6160248632
  C         7.4178764756        8.0974725033       12.7834940739
  C         7.4112241461        5.8727599132       13.8089804153
  C        10.6229620036        5.6079195352        4.2792269264
  C        10.9125355556        4.2373455210        3.6229174321
  S        10.9495557799        1.6071396800        3.6754091492
  H        11.9107547493        4.0811261306       12.9497621671
  H        10.5491468915        3.0758739894       12.7064293615
  C        12.0397676547        2.1127512939       13.7960295997
  N         7.5387254572        9.1355874149       11.8422185159
  C         7.0857084714        8.6536110020       13.9979543520
  C         7.0837022210        6.4531240187       15.0431941427
  H         7.5573496893        4.8410331812       13.7639121120
  C        11.9348955510        6.4166129894        4.3332029146
  C         9.4962546637        6.1372376552        3.4555250328
  C        11.2347260408        3.8008665972        2.3380787494
  C        11.3026548125        2.4331122334        2.2721474105
  H        13.0912825432        1.7702598882       13.5811997044
  H        11.3881995732        1.2232832279       13.6975445654
  C        11.9162451985        2.6942660070       15.2101103544
  S         7.2778871098       10.5115884125       12.4572218842
  N         6.9569050132       10.0445593746       13.9427432319
  C         6.8503205338        7.9321048787       15.1708132115
  H         7.0665928526        5.8424686500       15.9454156089
  H        11.6916697852        7.3934847176        4.6252014573
  H        12.3977477882        6.5719999327        3.3589343838
  C        13.0006547461        5.7691909452        5.2076294479
  H         9.0570004659        7.0293478722        3.9390939508
  H         9.9860493894        6.5569111069        2.5817355121
  C         8.3372218670        5.1195172699        3.0069053278
  H        11.3931732822        4.5445026815        1.6308335444
  C        11.6847395516        1.7041182730        1.0011031091
  H        11.5855745047        3.7347362894       15.1531031316
  H        11.1128941611        2.3423683473       15.8231697124
  C        13.0114543892        2.5201204956       16.1848738625
  C         6.6016200447        8.6169036256       16.4505486620
  H        12.6317143037        5.8851105253        6.1963480625
  H        12.9917271002        4.6836607987        5.0196560241
  C        14.2961870368        6.5301782691        5.0882353484
  H         8.0720914093        4.3853412383        3.8074732168
  H         8.5349369266        4.5492328918        2.1271512165
  C         7.0891129930        5.9307643414        2.6501592961
  C        11.6498530279        0.3145612816        0.8459018170
  C        12.0722256574        2.4354285792       -0.2345887854
  H        13.8817714292        3.1194705656       15.9882313919
  H        13.5080059753        1.5703862182       16.0675190589
  C        12.6496316215        2.7066941745       17.7025149254
  H         6.6730291330        9.6576590315       16.3883751640
  C         6.4243260678        8.1679042718       17.7180514690
  H        13.9492571896        7.5322672194        5.0608204887
  H        14.8107680898        6.2921275486        4.1983351338
  C        15.2181536619        6.2449123622        6.2546282842
  H         6.2386808757        5.4678927438        3.0580499216
  H         7.1260091774        6.8156376170        3.2995344702
  C         6.9303746927        6.3569897091        1.1430870893
  N        11.3051317495       -0.6108411436        1.8334559454
  C        12.0164111692       -0.3601558547       -0.3244434227
  C        12.4086781131        1.7662597638       -1.4479768109
  H        12.0139957545        3.5148043587       -0.1701417717
  H        13.4927546321        2.5685553616       18.3104776825
  H        11.9423381620        1.9639758011       17.9907437111
  H        12.2845924474        3.7018394438       17.8869562995
  S         6.2146124461        6.5079727659       18.2475558690
  C         6.3859472290        9.2272785805       18.8420043777
  H        15.7395483631        7.1483636865        6.7306838547
  H        14.6679565314        5.8145132333        7.1290851250
  C        16.2436664434        5.2013847823        5.8336407381
  H         7.2103107696        5.5026553050        0.5611780204
  H         7.6606350415        7.0880992776        0.8103579801
  C         5.5527626802        6.9857146561        0.7535604448
  S        11.3981390965       -2.0882925898        1.2835652002
  N        12.0041379256       -1.7602600206       -0.1951368932
  C        12.3549760621        0.2867647034       -1.5501335582
  H        12.6265269549        2.4007830215       -2.2719600520
  C         5.9715979967        7.1682695419       19.8620648738
  N         5.9350528634        8.5637411512       19.9486076465
  O         6.3808180698       10.4415298552       18.6817777604
  H        15.8213001688        4.3868879628        5.2009161402
  H        16.9569030437        5.7700585165        5.2805330251
  C        16.9765354427        4.6859655453        7.1740650671
  H         5.5748724394        7.4791891072       -0.2095390460
  H         4.8476763529        6.1936123851        0.5550124048
  C         4.8981551786        7.9404978562        1.8169195556
  C        12.7632338063       -0.4713512016       -2.6712111107
  S         5.5940350231        6.2933422743       21.2473863388
  C         5.8570589660        9.3191855454       21.2116732627
  H        16.2719193474        4.6779822906        8.0564948458
  H        17.2726707922        3.6269350233        7.0882356772
  C        18.2029986593        5.4226506949        7.6821452280
  H         5.5611511970        8.2646945248        2.5779358336
  H         4.0952361200        7.3804014510        2.4133262573
  C         4.2303531921        9.1562442196        1.0651021616
  H        12.4013841760       -1.5006407360       -2.4984131411
  C        13.2762952230       -0.2047812466       -3.9272081509
  H         5.0281385056        9.0451805706       21.8057155904
  H         5.7231409127       10.3937630788       21.0112495023
  C         7.2366913812        9.2183678511       21.9447216271
  H        18.5992924028        4.9920143829        8.5903531941
  H        17.9493847910        6.4611046791        7.8026717933
  C        19.3040253491        5.2777231334        6.6366428504
  H         4.8993654168        9.8319203225        0.5734835525
  H         3.4574466484        8.8640609115        0.3195106972
  C         3.5610049363       10.0448573788        2.0707420772
  S        13.8724014059        1.3052922805       -4.4994420513
  C        13.2561520661       -1.2632264688       -4.9193724049
  H         7.8977880833        8.8473428147       21.1546481587
  H         7.2433738308        8.5856809124       22.7762356544
  H         7.6178119500       10.2255905380       22.2016066799
  H        19.2639183598        6.1230048145        5.9383047243
  H        20.2745410786        5.4151408401        7.0893457367
  H        19.1709625744        4.4363759526        6.0710456731
  H         2.4992425829        9.9075087818        2.0580755514
  H         4.0257810609        9.9653689049        3.0477662719
  H         3.7368446706       11.1056485846        1.6939777985
  C        13.8529467974        0.5789753820       -6.0549110333
  N        13.6292735260       -0.7769848789       -6.1197485143
  O        12.8707746877       -2.3712931313       -4.6759377395
  S        14.3347792954        1.4460506534       -7.6307122731
  C        13.7168533138       -1.6162100785       -7.3112142575
  H        13.9449895173       -2.6876204028       -7.0058905301
  H        14.6362480216       -1.2061037843       -7.7638220782
  C        12.4967768994       -1.4352269879       -8.1677690595
  H        11.4268920654       -1.4849907402       -7.7078252626
  H        12.6328704471       -2.1938525055       -8.8808994863
  H        12.5876554238       -0.5639099449       -8.8309034342
  H        -2.2893302199       12.3879863027       17.3042475439
  C        -2.6556319216       13.2299422049       16.6751189988
  H        -1.8542040468       13.8942976881       16.4093696957
  C        -3.5424309022       13.9911906812       17.6560739771
  C        -3.3771827918       12.7216666832       15.3566369642
  C        -3.8867411541       13.2755181092       19.0231150237
  H        -3.1534847518       14.9817817478       17.8327175302
  H        -4.4561848258       14.1795259757       17.1976584354
  H        -2.8535671080       11.7778059503       15.0699513260
  H        -4.4737821446       12.5190620498       15.4669229766
  H        -3.2612672280       13.4560350269       14.5214813929
  C        -2.7105226541       12.8137417302       19.9427382165
  H        -4.5278660980       12.3720118896       18.8766121171
  H        -4.5386032686       14.0076171459       19.4762571191
  C        -2.9929691431       12.9639931949       21.4767865705
  H        -2.4543366523       11.8188254213       19.6380504512
  H        -1.7456163442       13.2825055793       19.6526509933
  C        -1.7598613457       12.4286876542       22.2528373155
  H        -3.9218340645       12.3931156846       21.6913918612
  H        -3.2949984335       13.9667576109       21.7904153049
  C        -0.5958223652       13.4073117628       22.5158171507
  H        -2.1134453671       12.2265500557       23.2137048795
  H        -1.3568752681       11.5650107845       21.7817695847
  C         0.5989429847       12.7648358610       23.2603877112
  H        -0.1577076045       13.7683057827       21.5891413998
  H        -0.8453522346       14.2017760780       23.1057626422
  C         1.0369594306       11.4339006070       22.6505167150
  C         0.1831832040       12.1446913882       24.5940570974
  C         1.8440616020       13.7525797414       23.4871858677
  C         0.7773627715       10.3783618059       23.5365192196
  C         1.6630600792       10.9769079452       21.4456384186
  C         0.2468901493       10.7830075926       24.6949046518
  C        -0.3293305993       12.8267987882       25.7268297974
  H         2.2553194288       14.1997828579       22.5671185373
  H         1.6085458152       14.5412642476       24.2095493437
  C         3.0501167540       13.0100162871       24.0681553120
  S         1.2036860876        8.8218244812       23.0084260509
  C         1.8845958679        9.6188140508       21.5948353778
  H         2.0567530906       11.6564068142       20.7098313531
  C        -0.2574732831       10.2306043303       25.8550326469
  H        -0.2712002046       13.9356634784       25.7156204910
  C        -0.6830493164       12.2528970495       26.9286486194
  H         3.4582012967       12.2371086548       23.3751957300
  H         2.8407604528       12.5979053572       25.0581258527
  C         4.2197307920       14.0141910679       24.3777673852
  C         2.5229975040        8.8605736655       20.5254288560
  C        -0.6607942783       10.8861177862       27.0014024707
  H        -0.3368971536        9.1792456640       25.9137569939
  C        -1.1012987308       12.6394765970       28.2095865624
  H         5.0065412530       13.4985684729       24.8619969898
  H         3.9450208769       14.8319139504       25.0545954526
  C         4.9063341550       14.6972381943       23.1785984465
  C         2.5195249316        7.4390122866       20.3199593234
  C         3.0485981423        9.6374021668       19.3753565323
  C        -1.0346334977       10.2631492655       28.2528453652
  C        -1.3628322234       11.5717598864       28.9937901592
  S        -1.3579881345       14.1436723402       28.9388724520
  H         5.4440355189       15.6094628608       23.4873597183
  H         4.0916698217       15.0744879083       22.5414791561
  C         5.7218562507       13.6820012339       22.3428789280
  N         2.2366107553        6.4741653845       21.2853950495
  C         2.7254660992        6.8654527378       19.1318234575
  C         3.1859530118        9.0584028582       18.0824436227
  H         3.2330525231       10.7086658374       19.4463656936
  C         0.1136934757        9.5691871219       29.0748590606
  C        -2.2948743287        9.4458065277       28.0814946361
  C        -1.8518761698       11.9606516201       30.2277677022
  C        -1.8073879097       13.3268224662       30.4240723154
  H         6.7378939572       13.6112395141       22.7138847885
  H         5.4191156350       12.6764723600       22.5121304806
  C         5.8412431146       14.0609614473       20.8686599164
  S         2.2888459507        4.9433533256       20.5408693544
  N         2.5853251382        5.5424031332       19.0688592177
  C         2.9809359157        7.6129269325       17.9437928953
  H         3.5424818753        9.6982139834       17.3347822070
  H         0.3453013730        8.7399339101       28.4292070700
  H        -0.0290233344        9.0148092576       30.0052333630
  C         1.4214660222       10.3983245349       29.1739845358
  H        -2.0595791911        8.5088714462       27.5903838382
  H        -2.6334944303        9.2198532424       29.0838324703
  C        -3.4080895844       10.0846027907       27.4004839201
  H        -2.1086633482       11.1840313044       30.9066205817
  C        -2.1599659050       14.1157537745       31.6666131537
  H         5.7833833314       15.0952594279       20.6567725853
  H         4.9153823129       13.6844652044       20.3717013516
  C         6.9900660980       13.4866848685       20.1067863119
  C         3.1995751571        6.8954376592       16.7264796103
  H         1.9634719660       10.4995165232       28.2401712838
  H         1.2682540701       11.4182292257       29.5208428580
  C         2.3479543789        9.7739220369       30.1807838193
  H        -3.2499407491        9.9587668282       26.3674989722
  H        -3.7045184469       11.0706563554       27.7346391679
  C        -4.6050439954        9.1099939021       27.3224807329
  C        -2.1725312978       15.5298568949       31.7344397726
  C        -2.5554715117       13.3499989168       32.8972090546
  H         7.9175529967       13.8571434425       20.5013132449
  H         6.9341700405       12.4114845168       20.2154017431
  C         6.9605689462       13.8594802206       18.6713413511
  H         3.0966088971        5.8525385198       16.8645448485
  C         3.4247582250        7.3625658299       15.4199228268
  H         2.7131474816        8.8252656923       29.8073648300
  H         1.8385998732        9.5287517007       31.1294691034
  C         3.5679364677       10.6332861292       30.5344067126
  H        -4.2803206861        8.3516808190       26.6213386778
  H        -4.8017425951        8.5626665099       28.1850138299
  C        -5.9239908285        9.6541054907       26.7891547526
  N        -1.8855077296       16.4733111346       30.6911868047
  C        -2.4493472735       16.1949809471       32.9589269509
  C        -2.7384628141       14.0571360513       34.0991010737
  H        -2.6710255262       12.3611057579       32.8501626909
  H         6.7607463759       12.9374467724       18.0826757310
  H         6.2252015684       14.6645536543       18.3266454616
  H         7.9075689336       14.0738111552       18.2654998898
  S         3.5154045958        8.9664216895       14.7911399455
  C         3.6225965228        6.3737211923       14.2996573633
  H         3.4582759278       11.5714991246       29.9314620598
  H         3.4739921769       10.9767677420       31.5570142620
  C         4.9637285860        9.9548564406       30.4377863447
  H        -6.6011604337       10.0341259781       27.5822529707
  H        -6.5428465749        8.8273833330       26.3739387305
  C        -5.8656756658       10.6119101222       25.6577975471
  S        -1.8129052879       18.0127066382       31.2692486323
  N        -2.2336234470       17.5603575685       32.7657317157
  C        -2.6505287327       15.5456666660       34.2100253373
  H        -2.8416372120       13.5397213051       34.9863758522
  C         3.8985533311        8.3595053105       13.2673547379
  N         3.9996650120        7.0101014264       13.2115372066
  O         3.4977793263        5.1370714724       14.4351068911
  H         5.6926738147       10.7655066918       30.7948988829
  H         5.1620097260        9.6648023661       29.4169206168
  C         5.2926980566        8.7776929030       31.3229622535
  H        -5.1260145960       11.4183268206       25.7316014175
  H        -5.5635670566       10.0685140081       24.7878604619
  C        -7.1145386323       11.4260371735       25.4287469264
  C        -2.9061650507       16.4023808064       35.3889788288
  S         4.1158570161        9.1804801320       11.7340417277
  C         3.7996051192        6.3076589974       11.9435205932
  H         6.1373263035        9.0675714660       32.0042529768
  H         4.3916044429        8.5919325312       31.9442960116
  C         5.6926294157        7.5901408929       30.5143699629
  H        -6.9175569521       12.1253780515       24.5946712234
  H        -7.2912450398       12.1567117422       26.2824882997
  C        -8.4119618103       10.6215015996       25.2317064067
  H        -2.6019893392       17.4409078594       35.3322486816
  C        -3.4814780712       16.0812107145       36.6359674855
  H         4.5739853430        6.6412544511       11.2463254232
  H         4.0152354940        5.2877734361       12.1124430825
  C         2.3712933327        6.3489108765       11.3530809870
  H         6.4494108969        7.8421467611       29.7360376327
  H         4.7842137043        7.1730880905       29.9757846364
  C         6.2017582374        6.3610037548       31.3261396998
  H        -9.1251685773       11.0403390182       24.5560986170
  H        -8.2828804546        9.6215329582       24.7888681424
  C        -9.2017250406       10.4178746560       26.5598991138
  S        -4.1528450000       14.5629728365       37.1195412223
  C        -3.5181560132       17.1474448124       37.5983310026
  H         1.5902055285        6.5042386259       12.1648090670
  H         2.2651746252        7.3275426413       10.7735856322
  H         2.2040035853        5.4093803138       10.7150114813
  H         7.0822613752        6.5521166302       31.8904744303
  H         6.5778519168        5.7292450009       30.5748480750
  H         5.3681032299        5.8337688332       31.8364703483
  H        -9.1725900179       11.3442673413       27.0815060479
  H        -8.7007756959        9.6198595648       27.1275498762
  H       -10.1940314106        9.9652669131       26.5010016339
  C        -4.3775997418       15.3896392319       38.6711781910
  N        -4.1020452697       16.6974037895       38.6993373830
  O        -3.1391010031       18.3247756932       37.3553189039
  S        -4.9621430450       14.5183578407       40.0978273805
  C        -4.1864428779       17.5064811623       39.8957393943
  H        -4.3258838580       18.5870641339       39.7279746121
  H        -5.1101851009       17.1190962948       40.4166638238
  C        -2.9222181287       17.4212820430       40.7889531277
  H        -2.9388479941       18.1932710619       41.4974668224
  H        -2.8789137597       16.6094743616       41.5137578040
  H        -1.9958315371       17.5004906124       40.2779421879
