352
i=
  H         5.0722263469        1.6105825423       12.5650304705
  C         4.3790134459        2.5178408648       12.5285764425
  H         5.0386944131        3.4076397814       12.7818404425
  C         3.7383337945        2.5235351378       11.1474497390
  C         3.2211160321        2.3780328161       13.5917294207
  C         4.4673911696        3.0418168341       10.0127115375
  H         2.9348610862        3.2293588615       11.1858204155
  H         3.3660841749        1.5233512329       11.0045460125
  H         2.5468524451        1.6514251007       13.2623651352
  H         2.6413144651        3.1796565980       13.6050289386
  H         3.6687998769        2.1955092346       14.5446061369
  C         4.9681690476        1.9529651089        9.1934170098
  H         3.7130398453        3.6379633084        9.4569237548
  H         5.2683050548        3.7720100751       10.3210800793
  C         5.6431049467        2.4378469501        7.9347969513
  H         4.0887277052        1.3481853327        8.9013595100
  H         5.6055602905        1.2709351471        9.7545192929
  C         6.8614247828        3.2516373913        8.2486003679
  H         4.9884415611        2.9564899498        7.3158348006
  H         5.8659628622        1.5233183936        7.2705687904
  C         8.0591107409        2.4160935618        8.8679687779
  H         7.1733172802        3.8668691899        7.3896887358
  H         6.6252581834        4.1057267404        8.8470794578
  C         9.3897727979        3.1810918379        9.1031412772
  H         8.2924114514        1.6345251841        8.1445110366
  H         7.6826605615        1.8838347442        9.7869962984
  C         9.1156702685        4.4502314321        9.8219082918
  C         9.8619491549        3.9043276769        7.8731781890
  C        10.4977809255        2.3307192302        9.7868674097
  C         9.3966815289        5.5930262043        9.0529638244
  C         8.6040849689        4.7823528811       11.1318947244
  C         9.8046494079        5.2268592276        7.7909437051
  C        10.3043578225        3.2667889024        6.7095256994
  H        10.1921569782        1.9490851688       10.7630878376
  H        10.7140853291        1.4092771130        9.2453860737
  C        11.8019293232        3.0498354293        9.9781313584
  S         9.1220899790        7.0469499366        9.8932960915
  C         8.4821822154        6.1262628029       11.2376109354
  H         8.3591906325        4.0199936944       11.8334317065
  C        10.0829044145        5.8513637409        6.5979724293
  H        10.2682665090        2.1592982248        6.6847036334
  C        10.6516711141        3.9106473389        5.5872953233
  H        11.5712948191        3.9933432518       10.5866545845
  H        12.2357399861        3.4497615248        9.0243370514
  C        12.8907754145        2.3555872844       10.8292082414
  C         7.9273481192        6.7968014547       12.4431734743
  C        10.5410852348        5.2404805283        5.4860368050
  H        10.0534284305        6.9482132376        6.4593738361
  C        10.9998455383        3.5518009704        4.3297102130
  H        13.6465841844        3.0879673507       10.7730362635
  H        13.4939128589        1.5816631993       10.3858179181
  C        12.5686907437        2.1836296419       12.2998981920
  C         7.9511726900        8.1943424902       12.6340398579
  C         7.4905266575        5.9666765683       13.6029664737
  C        11.0477005773        5.9763272732        4.2333796266
  C        11.2459220760        4.6196281522        3.4830341399
  S        11.2715147127        1.9690122031        3.6346189505
  H        11.4917339365        2.1206629607       12.5303021021
  H        12.8995687527        1.2343468253       12.6243170437
  C        13.2195876315        3.1104819799       13.3526400255
  N         8.3114174367        9.1474727461       11.7022588659
  C         7.5724420177        8.7618295153       13.8567176449
  C         7.1414600529        6.5455780854       14.8339265804
  H         7.5163443730        4.9151528415       13.5540263942
  C        12.4097139183        6.7946685598        4.3865487578
  C         9.9765267810        6.7859935257        3.3619643590
  C        11.5474012812        4.2228329210        2.2142451815
  C        11.5969582483        2.8597930281        2.1602216315
  H        12.4428282735        3.8562153490       13.5750492370
  H        14.0758584292        3.7042223360       12.9731802873
  C        13.5968034867        2.3551290874       14.5684978995
  S         8.2692080811       10.6158440655       12.4400482889
  N         7.6321220838       10.1300432983       13.8901561999
  C         7.2006758392        7.9986054570       14.9580178075
  H         6.6825245348        5.9006929745       15.5360952116
  H        12.3250044747        7.5092629997        5.1647194164
  H        12.6227001835        7.2578068992        3.4257596179
  C        13.5846538184        5.9357987172        4.6408055156
  H         9.6757872534        7.6632258023        3.8993263802
  H        10.3972176922        7.2391096819        2.4690560044
  C         8.7166241358        5.9690967386        3.1019894504
  H        11.5464031382        4.9876115551        1.4069427404
  C        11.8437058753        2.0451708368        0.9207234286
  H        14.1086469183        1.4425323505       14.3340337677
  H        14.3510751787        2.9975349521       15.0079320296
  C        12.4917880527        2.0262802808       15.5122997979
  C         6.7493292333        8.6693468925       16.1573350835
  H        13.3425458054        5.1308532294        5.2768163533
  H        13.8100459485        5.3742423101        3.6849630896
  C        14.7491236198        6.6854958593        5.2618896967
  H         8.2559641931        5.6425382764        4.0440668423
  H         8.8803793003        5.0549119096        2.5254143763
  C         7.7754461555        6.8548059039        2.2879623401
  C        11.8646443943        0.6146037364        0.7269430860
  C        12.0846833502        2.8533437041       -0.2773698142
  H        12.4617948998        0.9551214199       15.6259556137
  H        11.4944647266        2.4282344263       15.1193775043
  C        12.8543585612        2.5888458155       16.9370881910
  H         6.6870762096        9.7384610189       16.0768289420
  C         6.4233627859        8.1872784900       17.4488203965
  H        14.4616145623        7.2396930824        6.1286334463
  H        15.1117478327        7.4438095886        4.5610595895
  C        15.8518070208        5.6621507124        5.6572646366
  H         7.7844532276        7.8713554869        2.6771041189
  H         8.0306523936        6.9571687750        1.2377209059
  C         6.3200860463        6.3938037679        2.3933742321
  N        11.7467960703       -0.4714836624        1.6807299774
  C        12.0687323954        0.0636362731       -0.5644947404
  C        12.3644838519        2.2718815478       -1.5390125407
  H        12.1858994846        3.9266028004       -0.1803222663
  H        13.9103806398        2.5122010513       17.1653717894
  H        12.3547148456        1.9908928782       17.7082759414
  H        12.6081023625        3.6757471337       17.0846116723
  S         6.2865447284        6.5594298081       17.9690690337
  C         6.4065040763        9.1853508146       18.5317356005
  H        15.5898740992        5.3119288634        6.6262930262
  H        15.8845490795        4.8079320584        4.9779479892
  C        17.2125452796        6.3679263008        5.6945410590
  H         6.0104985424        6.9107860971        3.2902718989
  H         6.2115048148        5.3287489022        2.5591159086
  C         5.4283845238        6.8592241325        1.2457703534
  S        11.5729936999       -1.8753088661        0.9253376438
  N        11.9655178733       -1.3005240895       -0.5443002641
  C        12.5002828069        0.8194903626       -1.6764503531
  H        12.5291036726        3.0713374805       -2.3180853441
  C         6.2048697211        7.1803977641       19.6203727493
  N         6.2272627139        8.5349835027       19.6760630070
  O         6.5364269705       10.3610411378       18.3342623705
  H        17.7764855453        6.1841505042        4.8184844964
  H        17.0871747122        7.4381909988        5.4919155723
  C        17.8562902825        6.1419668137        6.9848482007
  H         5.9355825512        6.9012068859        0.3152576345
  H         4.7259934826        6.0081775175        1.0084541641
  C         4.7165594060        8.2369841134        1.4504027603
  C        12.7113275904        0.1505689429       -2.9045469542
  S         6.0553798515        6.2081620803       21.0744153490
  C         6.0524513488        9.2475154587       21.0247721336
  H        17.2548165728        6.8145781155        7.6526551735
  H        17.6509945503        5.1642964820        7.2142824671
  C        19.3666161586        6.4453971481        7.1094776348
  H         5.0479849998        8.7732026823        2.3971410672
  H         3.6461225493        7.8846935734        1.5963147400
  C         4.8636546632        9.1076427802        0.1981863591
  H        12.5345026818       -0.9630161933       -2.9624454734
  C        13.3333447556        0.5089510063       -4.0923677225
  H         5.4493722759        8.6899621788       21.6506089689
  H         5.5032866922       10.2003035881       20.9435214830
  C         7.3869108012        9.3451214127       21.6204012264
  H        19.7241430806        6.1976162834        8.0945294071
  H        19.6813125350        7.4763838233        7.0699943651
  C        20.0519764589        5.5898859361        6.0637262305
  H         5.9126652995        9.0152575580       -0.0572394177
  H         4.1896468141        8.8338189000       -0.6566727654
  C         4.7311614238       10.6369440157        0.4940588786
  S        13.9236607723        2.0522603639       -4.5048140947
  C        13.4798556406       -0.5249246352       -5.2179183958
  H         7.3271645754        8.9019131413       22.6187130862
  H         7.6611846258       10.3807457766       21.7898269746
  H         8.1352793939        8.7747215987       21.0858360306
  H        19.6091996131        4.6063065494        5.8368975018
  H        20.1400404823        6.1412614389        5.0859045690
  H        21.0635103012        5.5247310958        6.3623967214
  H         5.5576673380       11.0147237423        1.0828469867
  H         4.6386590228       11.2411283092       -0.4044029089
  H         3.7851478674       10.7698733556        1.0477262514
  C        14.5133871412        1.3096727879       -6.0194550301
  N        14.1759910397       -0.0026353080       -6.2378713009
  O        13.1544531389       -1.6933401149       -5.2138387133
  S        15.1557990843        2.1751668938       -7.4822914674
  C        14.1618721691       -0.6382424941       -7.5768329731
  H        14.2785438545       -1.7585060035       -7.4362840654
  H        15.0542028270       -0.3490874714       -8.0373840237
  C        12.9177873898       -0.3631088080       -8.3424073355
  H        12.4796126097        0.7039401081       -8.1989329703
  H        12.2359097680       -1.1046058995       -8.0324771084
  H        13.1942912619       -0.5598721920       -9.3771460504
  H        -3.2697068204       14.7984806677       15.7015752125
  C        -3.1181721425       13.7072788163       15.7897171982
  H        -4.0197980328       13.1250921150       16.0052288248
  C        -2.1031951332       13.5318365705       16.8768658960
  C        -2.4920435703       13.2191863415       14.4780415207
  C        -2.5203341051       13.9876248581       18.2671780168
  H        -1.8431325117       12.4877244000       16.9899247259
  H        -1.2047278766       14.0744732697       16.6765014388
  H        -1.7806659685       13.8545970006       14.0268061271
  H        -1.9553061971       12.2391429079       14.5800214066
  H        -3.2424025186       13.0577993233       13.7276831293
  C        -1.6534158234       13.2976348322       19.3156784864
  H        -3.5591358621       13.6864956662       18.4096533204
  H        -2.3748499439       15.1243602244       18.3347670120
  C        -2.0887795924       13.5216311449       20.7555487342
  H        -1.7479947145       12.1976198476       19.2086955891
  H        -0.6043556372       13.6287049773       19.1651480263
  C        -1.0578649879       12.8809701539       21.6468868329
  H        -3.0397133829       12.9977759283       21.0136070993
  H        -2.3186457048       14.6214364800       20.9245905984
  C         0.0677954547       13.7693371995       22.0883621367
  H        -1.5418261104       12.5628481279       22.5671147930
  H        -0.7464202335       12.0358353054       21.0466213199
  C         1.3398992125       13.1864417310       22.7921216956
  H         0.3446493193       14.3785780917       21.1840188820
  H        -0.4297161876       14.5244657449       22.7137777110
  C         1.6593225276       11.9477156801       22.0475059095
  C         0.9280877629       12.4498525322       24.0104177439
  C         2.4760081206       14.2981183996       22.8890903103
  C         1.5001841650       10.7926207715       22.8405594699
  C         2.1540239799       11.6233126820       20.7611489016
  C         0.9507268851       11.0927853526       24.0116905611
  C         0.4471302310       12.9860033597       25.1821058465
  H         2.5328360769       14.8247100039       21.9598235818
  H         1.9206187931       15.0330342464       23.5098395322
  C         3.7723661995       13.8988595944       23.5130484664
  S         2.0782492517        9.3577879377       22.1184453290
  C         2.4089776844       10.2877616114       20.6487804632
  H         2.3138782291       12.3630434780       19.9735174566
  C         0.5578622733       10.3726472479       25.1424814547
  H         0.3062699087       14.0405539716       25.1879152625
  C         0.0816933425       12.3723536404       26.3088123353
  H         3.9423541562       12.8465640191       23.4595763652
  H         3.7108267281       13.9941530791       24.5616770477
  C         5.0599175680       14.8087350660       23.2260338405
  C         2.6803029964        9.5733407531       19.3410377743
  C         0.0500966954       10.9875664010       26.2937876834
  H         0.6683146172        9.2687802906       25.2746985655
  C        -0.4964154322       12.7743909168       27.4726783202
  H         5.7105948497       14.6732075510       24.0714744402
  H         4.7905085983       15.8862593902       23.2824247506
  C         5.8381347562       14.6491292562       21.9001090240
  C         2.8162191734        8.2032845347       19.0924378690
  C         2.9275632190       10.4187549308       18.1635334011
  C        -0.4799565111       10.3449768993       27.5383635020
  C        -0.8615938396       11.6601624869       28.2260579204
  S        -0.8833948634       14.2393052512       28.2836488659
  H         6.8117824415       15.2084705771       21.9096806728
  H         5.2736144228       15.2336014063       21.1240009330
  C         5.8448382362       13.1670040175       21.4312617815
  N         2.6995130860        7.2265982626       20.0976930218
  C         2.9971953613        7.6269336417       17.8906443844
  C         3.2372001974        9.8485864700       16.8983559640
  H         2.9534297518       11.4416974741       18.1842632052
  C         0.6347237385        9.5893186123       28.3296849454
  C        -1.8272727445        9.5998720660       27.3847662763
  C        -1.2349570665       12.0303415843       29.5242755391
  C        -1.3144242893       13.3789644521       29.6765286166
  H         6.5963731108       12.4698130416       21.9543731775
  H         4.9331620783       12.7246540252       21.6060616742
  C         5.9502284283       13.1008285434       19.8756455940
  S         2.7248222658        5.7883312405       19.4323121947
  N         2.9950123259        6.1950919931       17.9116870227
  C         3.2573753715        8.3367017626       16.7349640782
  H         3.4481325559       10.4688573981       16.0319282454
  H         0.8954704806        8.7025330683       27.8157999651
  H         0.2928993935        9.2052138358       29.3059271066
  C         1.8734362199       10.4741539758       28.6901750168
  H        -1.6936019569        8.9075566904       26.6416234528
  H        -2.1742866654        9.1621818875       28.3603521329
  C        -2.8686612122       10.4960064438       26.8898786649
  H        -1.3480286632       11.2585744133       30.2165528571
  C        -1.5731893595       14.1156715690       30.9623077536
  H         5.2963106010       13.8854913031       19.5174494596
  H         5.5892556582       12.1423328569       19.4820233241
  C         7.3150039007       13.3853289686       19.2087099556
  C         3.5820110416        7.5775645409       15.5824167645
  H         2.4231853140       10.7724760380       27.7861999304
  H         1.5727835505       11.4562654434       29.1104842756
  C         2.7035213994        9.7502130070       29.7810439136
  H        -2.4709923294       11.0485333762       26.0263608994
  H        -3.0979745283       11.2150464684       27.6987202620
  C        -4.2043553485        9.8117861187       26.4889190043
  C        -1.6677553264       15.5535908690       31.1215522797
  C        -1.8700576550       13.2669087483       32.1211211964
  H         7.9790961482       14.0324530535       19.7126251931
  H         7.9021904908       12.5093892802       19.0020932692
  C         7.0629596809       14.0686308706       17.8385686987
  H         3.2879413821        6.5500945722       15.6360610203
  C         3.9224511279        8.0792623506       14.3642389181
  H         2.9628699662        8.8216168897       29.2673959375
  H         1.9874381427        9.4629119969       30.5211615280
  C         3.9226476444       10.5080635816       30.2570567014
  H        -4.0329410473        9.1500622355       25.5696314409
  H        -4.5363893936        9.2809896189       27.3705188194
  C        -5.2701807316       10.7928756965       26.1496584330
  N        -1.4064102365       16.4929389935       30.1372816308
  C        -2.0223747837       16.1314190758       32.3436109517
  C        -2.0764230299       13.8586258565       33.3750561697
  H        -1.7151505260       12.2233268032       32.0861990938
  H         8.0031542431       14.6293953989       17.5123008017
  H         7.0381127573       13.3297955054       17.0470862096
  H         6.1841490090       14.6765073980       17.7356731550
  S         4.2958506458        9.6451106485       13.8320399830
  C         4.0934064718        6.9905836803       13.3145478585
  H         3.8341581981       11.5994191226       30.1987368076
  H         4.0430007257       10.1858993420       31.2806353421
  C         5.1837248613       10.0065017840       29.4688968451
  H        -5.1428407783       11.3158477423       25.1766629265
  H        -5.4308345234       11.5616331091       26.9066943645
  C        -6.6793771233       10.1625028919       26.0403780910
  S        -1.6199711537       17.9344762124       30.7532469752
  N        -1.9313267512       17.5048100324       32.3073908347
  C        -2.1655136081       15.3428025419       33.5434629508
  H        -2.1363789179       13.1405932437       34.1590540192
  C         4.6377131840        8.8846334924       12.2351592470
  N         4.4371327639        7.5337826119       12.1802327213
  O         3.9070018879        5.7923226824       13.5785519777
  H         5.8739851075       10.7630210600       29.0646124777
  H         4.9070462237        9.4845166203       28.5711950631
  C         5.9637581919        8.9568017154       30.2388735611
  H        -6.5088782238        9.2306404278       25.5625125295
  H        -7.0399636477       10.0339846003       27.0396617854
  C        -7.6784368524       10.9352732982       25.1821228326
  C        -2.4435447480       15.9842365482       34.8066983253
  S         5.0638250024        9.7766594505       10.8294849359
  C         4.4908895543        6.6851240126       11.0015364469
  H         6.9205012969        8.7375812539       29.7440468776
  H         6.3728496903        9.3830607529       31.1607603438
  C         5.3506949114        7.5412101305       30.5205453851
  H        -7.1741209228       11.0746318152       24.2031641704
  H        -7.8206729436       12.0013275437       25.5520226706
  C        -8.9592871424       10.1237414962       24.8674261908
  H        -2.2464721833       16.9961005436       34.7931099702
  C        -2.9863269021       15.5236148206       35.9668027488
  H         5.0579736094        7.1547410386       10.1866556700
  H         4.9544794444        5.7460832346       11.2020360234
  C         3.0915897382        6.6665529842       10.4533170218
  H         4.8608934400        7.1748149373       29.6559719103
  H         4.5476632113        7.6990540304       31.2413382028
  C         6.4320237141        6.5529688890       30.9635740529
  H        -9.6088148547       10.5358837230       24.1028429609
  H        -8.7622434975        9.0811858317       24.5077783202
  C        -9.6538966079        9.8580716192       26.1556087027
  S        -3.5977576901       14.0200796971       36.3602039247
  C        -3.2219942325       16.5460918837       36.9815690452
  H         2.9751441366        6.0817346250        9.5441510222
  H         2.3349151718        6.3295667447       11.1451345409
  H         2.7667559884        7.6862601539       10.0586549187
  H         7.0452414730        6.8965322059       31.8292823642
  H         7.1082716363        6.3529517332       30.1673343907
  H         5.9874959718        5.6699426675       31.2771185212
  H       -10.7913894404        9.7875646664       26.0138684187
  H        -9.5457748858       10.6647363725       26.9569577010
  H        -9.2587963120        8.9479265100       26.6903737893
  C        -4.0889180283       14.7088963738       37.8800159695
  N        -3.8609460083       15.9952835959       38.0241926200
  O        -2.8524809657       17.6761187345       36.8706224957
  S        -5.1892796902       13.9437952130       39.0240689136
  C        -4.0395740742       16.7836091923       39.2695358068
  H        -3.9881222815       17.7842264849       39.0657977561
  H        -5.0442574348       16.5931346912       39.7400565382
  C        -3.0287444235       16.3708606475       40.3081995314
  H        -2.0757795763       16.2752941352       39.8769243293
  H        -3.0437529718       17.0765851391       41.1573255950
  H        -3.2791386392       15.4773821198       40.7275663002
