352
i=
  H         3.4500888966        4.2133176454       11.5291884035
  C         3.0899909575        3.2204462817       11.8839242427
  H         2.0536100382        3.2643791059       11.5238919255
  C         3.7023149294        2.0178198393       11.2277969645
  C         3.0287977923        3.1322197861       13.3847573215
  C         3.8505361495        2.3277221102        9.7122151944
  H         2.9634171590        1.2703603516       11.2592257759
  H         4.5803153140        1.7083469078       11.7769876189
  H         3.9920082134        3.4184128457       13.8186221148
  H         2.7359433285        2.1194808789       13.6164051037
  H         2.2288896856        3.7861123927       13.8448609097
  C         4.5619777127        1.2295296724        8.9621612234
  H         2.8488351654        2.5188199316        9.2265046821
  H         4.2363309678        3.3355512895        9.5275666849
  C         5.4409815362        1.7019014720        7.7766964354
  H         3.8162388533        0.4518608421        8.6633147473
  H         5.2184383425        0.7899809138        9.6831276293
  C         6.6195329029        2.5931364468        8.1784414428
  H         4.8201697073        2.3027681774        7.1021088592
  H         5.8317908391        0.8195909628        7.2333481611
  C         7.7951536217        2.0240669521        8.9728835224
  H         6.9831439909        2.9078455769        7.2313029974
  H         6.3360037388        3.5253364038        8.5479279583
  C         9.0801877023        2.9176811012        9.1613163898
  H         8.2364839577        1.1784643946        8.4104010077
  H         7.4750871884        1.6017197548        9.9342198060
  C         8.6779014013        4.2950096427        9.7253512871
  C         9.5251378145        3.5400841926        7.8229996458
  C        10.2250111874        2.2416669648        9.9575257576
  C         8.9823763351        5.3372662598        8.8370879659
  C         8.3381039354        4.7420603142       10.9964433829
  C         9.4697309627        4.8895219295        7.6540698349
  C        10.0109079743        2.8621424295        6.6902051841
  H         9.9496340154        2.1395921759       10.9905118576
  H        10.3779777414        1.2364391532        9.6895711486
  C        11.4838091118        3.1103281130        9.8944392547
  S         8.7165034934        6.9114769353        9.4488126861
  C         8.2626845798        6.1379865041       10.9877939130
  H         8.2430715504        4.0642556707       11.8480929481
  C         9.9406812137        5.4851153860        6.5103364785
  H         9.9718099978        1.8514523681        6.7984241148
  C        10.4623043534        3.4165880587        5.5367648630
  H        11.2592501241        4.0888135415       10.1673010451
  H        11.8979920412        3.1069377510        8.9279016168
  C        12.5810216666        2.7137461971       10.9247236841
  C         7.8276184387        6.8607339435       12.2283414332
  C        10.4081933754        4.7774034885        5.3572040295
  H         9.9873093647        6.5570977548        6.5085101997
  C        10.7448044323        2.9868528299        4.2806674012
  H        13.6214022454        3.1514256068       10.6161532633
  H        12.6288163097        1.5917179288       10.9216630904
  C        12.3339270584        3.1807342467       12.3627438873
  C         7.8064158292        8.2813088153       12.4464150141
  C         7.2293534854        6.0579855450       13.3174884778
  C        10.9057011617        5.4248304767        4.1055975320
  C        11.0330516692        4.0233998583        3.4086230001
  S        10.9922769215        1.3595523991        3.6480860029
  H        13.2383840447        3.6386392030       12.7694628031
  H        11.6257405215        3.9982335490       12.3010523064
  C        11.8425580013        2.1106217307       13.3958512276
  N         8.1141529060        9.2070519751       11.5382227090
  C         7.5563216806        8.8318309683       13.7412236845
  C         6.9116884081        6.5899838852       14.5872502180
  H         6.8307087786        5.0452594767       13.0451147528
  C        12.2558913335        6.2179136824        4.3747701361
  C         9.8659593562        6.3225599816        3.4176445915
  C        11.3595798031        3.5370704344        2.1313949800
  C        11.4056744749        2.1285718869        2.0961433379
  H        12.5241374497        1.2416815431       13.4242457458
  H        10.8870804778        1.6735267381       13.1088282387
  C        11.6896499197        2.7348566418       14.8008733085
  S         7.9613208214       10.7169673310       12.2244910080
  N         7.6701741577       10.2190456244       13.7535963220
  C         7.1714085512        8.0096763278       14.8455840928
  H         6.4150533676        5.9801267060       15.2614497623
  H        12.0219749522        7.0706760768        5.0984447419
  H        12.6474286114        6.6491193063        3.4720999134
  C        13.3799112642        5.3972814440        5.0571384003
  H         9.5553263970        7.0402673192        4.1228045724
  H        10.3251929243        6.8890164530        2.5822692195
  C         8.5536936667        5.6237424400        2.9869261589
  H        11.6138582427        4.2794861782        1.3821822458
  C        11.6465171054        1.3771314216        0.8420141063
  H        11.6973072840        3.7799888926       14.7548288037
  H        10.7273657936        2.4806837553       15.2114573111
  C        12.8320313937        2.2388446997       15.7271870704
  C         7.0101568555        8.6295406706       16.1043023603
  H        12.9719712218        4.8527502849        5.9111508866
  H        13.7560746708        4.6701928653        4.3094499666
  C        14.5272050416        6.3167862833        5.4005171809
  H         8.2321853974        4.9309737996        3.7669995225
  H         8.7551973137        5.0162126971        2.1235119902
  C         7.3407774754        6.4409292102        2.6395671427
  C        11.8820371079       -0.0287292264        0.8319957003
  C        11.9005978575        2.1287324895       -0.3890905305
  H        13.6979079836        2.8075262627       15.4570966281
  H        13.2461900880        1.2338976806       15.6418206309
  C        12.3837281652        2.7001666034       17.1316746303
  H         7.2217477826        9.6615563685       16.1032481723
  C         6.6757720282        8.2581256951       17.3916645182
  H        14.3080177018        6.9898807384        6.2600589723
  H        14.7885748909        6.8818996070        4.4718981450
  C        15.7459906204        5.4341701621        5.7592349480
  H         7.0447797224        6.9535476838        3.4497557953
  H         7.6879044569        7.1488912790        1.9009002971
  C         6.0951555398        5.6126074241        2.1440134724
  N        11.7908381119       -0.9334253675        1.9231000139
  C        12.2634032241       -0.7203502306       -0.3159782587
  C        12.2738399820        1.4182223443       -1.5616533288
  H        11.6924010247        3.1675988902       -0.4667883133
  H        11.5699955732        2.0420055539       17.5900387599
  H        12.0668598130        3.7115015749       17.0386339244
  H        13.2090993013        2.5216905192       17.8196009955
  S         6.2884245779        6.6525950805       17.8659415082
  C         6.5967915162        9.3143826270       18.4562963776
  H        15.3374349073        4.6073508142        6.2095496395
  H        16.0953326882        5.0577347572        4.7923773433
  C        16.8349213483        6.1713456228        6.4703132950
  H         6.0680086208        4.5283764921        2.5069574140
  H         6.2388623186        5.5308503200        1.0758857880
  C         4.8046067544        6.3957978622        2.3880726519
  S        12.0975545838       -2.4577692505        1.4113275978
  N        12.5343789447       -2.0841309469       -0.0817416974
  C        12.5230134073       -0.0287849591       -1.5365212004
  H        12.4509854266        1.9492423031       -2.5083001249
  C         6.0900190490        7.3896478015       19.4877162747
  N         6.3318669782        8.7246150411       19.6191823089
  O         6.8212778690       10.5089332952       18.1682812778
  H        17.3757935415        6.8154150968        5.7496724062
  H        16.3585748105        6.8321496866        7.2219959139
  C        17.8117442494        5.2785505652        7.1675384049
  H         3.9881994935        5.7166197394        2.4527625144
  H         4.7148280940        6.9646921510        3.3658766314
  C         4.5493313585        7.2768481560        1.2081659183
  C        12.9672006943       -0.7373582794       -2.7361220474
  S         5.5791008824        6.5907009779       20.9101801962
  C         6.1675181171        9.4904127160       20.8100444179
  H        17.4643744917        4.8960340879        8.1294811096
  H        18.0735898217        4.4968716884        6.4432371141
  C        19.0121531860        6.1544696298        7.6441249374
  H         3.9138558214        6.6665778930        0.4888880820
  H         5.4904437792        7.5366407419        0.7318437893
  C         3.9201101758        8.5827468318        1.7011644955
  H        12.9413461827       -1.7935202773       -2.6658395435
  C        13.3645150120       -0.4034941670       -4.0054662841
  H         5.3239084188        9.0688539420       21.3287032592
  H         5.7863209232       10.5045747475       20.7272208572
  C         7.4222243484        9.6251780063       21.7297652796
  H        19.5679417479        5.6254645847        8.4323151574
  H        18.5170124361        7.0405496888        8.0496811743
  C        19.9542956497        6.4341711573        6.4998717537
  H         3.5068303060        9.0841148141        0.8266830745
  H         3.0480037251        8.3429646814        2.3272025792
  C         4.8877028874        9.5454793095        2.4001510412
  S        13.8335951236        1.1179357747       -4.5420552740
  C        13.5135477175       -1.5285856936       -5.0527202596
  H         7.2008472794       10.2395916492       22.5944824117
  H         8.3761580934       10.0632210825       21.3775064149
  H         7.6182027541        8.6671346766       22.2166124854
  H        19.6201123992        7.2688180664        5.8650263039
  H        20.9630291930        6.5354826999        6.8861733024
  H        20.0514494699        5.5377144129        5.8443515101
  H         4.2843715616       10.4828286215        2.5333985290
  H         5.2134866585        9.1086644021        3.3746901814
  H         5.7567657134        9.7641345563        1.8164747943
  C        14.1364844026        0.3585953417       -6.1077038285
  N        13.9863746157       -0.9846959104       -6.1897120375
  O        12.9671599648       -2.6012399636       -4.9182750269
  S        14.9121764537        1.1909557862       -7.4569757016
  C        14.0492472749       -1.7958476702       -7.3884819198
  H        14.2500115568       -2.8370880713       -7.0612989096
  H        14.8864461228       -1.4227167677       -7.9162685916
  C        12.8342292207       -1.7362931787       -8.4336122352
  H        11.9485595182       -1.3813217933       -7.9102259770
  H        12.6583823453       -2.7324608874       -8.8861227660
  H        13.1238957616       -1.0938478945       -9.2401219118
  H        -3.3565158501       14.3359817512       15.4380176201
  C        -3.0708442343       13.3320651271       15.7486951033
  H        -3.9048401126       12.7602163064       16.0187931386
  C        -2.1417123566       13.3190386398       16.9213756401
  C        -2.4169637463       12.7341787068       14.5122457357
  C        -2.7671177920       13.6567937617       18.2699261789
  H        -1.6847107096       12.3378947020       16.9917523429
  H        -1.3009295912       13.9356275734       16.7507780628
  H        -1.8130895972       13.4729046151       13.9358253375
  H        -1.7152848467       11.9607202793       14.7274134955
  H        -3.2118125911       12.3900300687       13.8465488462
  C        -1.8164421762       13.4977989289       19.5079731055
  H        -3.4875021950       12.8361029144       18.3303192609
  H        -3.1905832574       14.6051866739       18.2755879728
  C        -2.4938042467       13.6137742289       20.8536033478
  H        -1.4286081434       12.4491057294       19.4692903618
  H        -0.9622113455       14.1356243548       19.3826197970
  C        -1.5234929817       13.0937864810       21.9553848624
  H        -3.3363119426       12.9520482868       20.9198286895
  H        -2.8602134994       14.6213307730       21.0186295199
  C        -0.2143115350       13.9151275565       22.1734061183
  H        -1.9626727547       13.0440695123       22.9430654198
  H        -1.2891291784       12.0974604173       21.6890724648
  C         0.9607007900       13.2565527417       22.9219659111
  H         0.2159905828       14.5910504746       21.4574583677
  H        -0.5809225800       14.4855246426       22.9577837918
  C         1.3370553998       11.8632038683       22.2737148093
  C         0.5081117115       12.5444724256       24.1753042979
  C         2.2088370260       14.0592264943       22.9674341059
  C         1.1574498554       10.7778139483       23.1074314577
  C         1.7384562029       11.4914922905       20.9362855167
  C         0.5989660139       11.2108247122       24.2900838942
  C         0.0839628989       13.2177664773       25.3571396348
  H         2.5101147328       14.2002869088       21.9337571131
  H         1.9053838897       15.0628239422       23.2084911501
  C         3.3222448246       13.5773612055       23.8164905733
  S         1.6926758618        9.2781365841       22.3682200281
  C         2.0029011757       10.1453305361       20.9099398706
  H         1.7623297590       12.2703908367       20.1794741364
  C         0.1997868387       10.5952156770       25.4036644419
  H         0.1877206066       14.2704271559       25.3611098998
  C        -0.3624054849       12.5969176776       26.4901517057
  H         3.9253473571       12.8528252505       23.3912228713
  H         3.0969029209       13.2166313674       24.7805399126
  C         4.2218542185       14.7463815765       24.1650877275
  C         2.5940715342        9.3483774621       19.7440458141
  C        -0.3762453011       11.2289554003       26.5214028496
  H         0.2933315525        9.5585497741       25.5481326694
  C        -0.8199992999       13.0154243260       27.6657066722
  H         5.0055253727       14.4329038632       24.8900688732
  H         3.6889156377       15.6199578746       24.6416447011
  C         4.9596891715       15.3537883998       23.0136156772
  C         2.5618280523        7.9350462870       19.4543426778
  C         3.0266517476       10.1540456350       18.6148765801
  C        -0.8428837238       10.5716352459       27.7307588496
  C        -1.1640354774       11.9133735186       28.4348055211
  S        -0.9028124978       14.5132659606       28.5264700752
  H         5.4166122468       16.2633833088       23.3845551380
  H         4.2389209017       15.6842723298       22.2514692196
  C         6.1014760299       14.4473224809       22.4439792683
  N         2.1634180699        6.9601160567       20.3834217681
  C         2.7169667758        7.4501368065       18.1596517986
  C         3.3149742660        9.6857064634       17.3388426669
  H         3.1395455112       11.2677780123       18.7920817539
  C         0.3604954596        9.8991805801       28.5603832969
  C        -2.1561002298        9.7192135457       27.6654247350
  C        -1.5238562632       12.2504949970       29.7387034671
  C        -1.5250101941       13.6456776140       29.9291310894
  H         6.9854124520       15.0529544217       22.7284937909
  H         6.2151004697       13.5569493720       23.0938932588
  C         6.0873572530       14.0955922422       20.9284629285
  S         2.0103544240        5.5366049196       19.6320951326
  N         2.5678474955        6.0406133288       18.1726602390
  C         3.2633276429        8.2208176724       17.0684140881
  H         3.7058873849       10.3379511606       16.5386391594
  H         0.5747750777        8.9467702689       28.0398150446
  H        -0.0036871317        9.6330485258       29.5686961395
  C         1.6167090433       10.7091153469       28.8035623822
  H        -2.0409952802        8.9152404348       26.9591718320
  H        -2.2907460484        9.2262632965       28.6454441723
  C        -3.4647014523       10.3951022606       27.1821944561
  H        -1.6445442711       11.5473656340       30.5223195942
  C        -1.6987659807       14.3432723611       31.2741808852
  H         5.6602486736       15.0208954009       20.3900821594
  H         5.4126749348       13.2870375561       20.6797371575
  C         7.4955214614       13.9493070914       20.3642718731
  C         3.4912473253        7.6263402715       15.8085335340
  H         2.2205021832       10.7336705817       27.8532217760
  H         1.3169417157       11.7079596513       29.2316769986
  C         2.5746913807        9.9953009042       29.7764862118
  H        -3.2303550905       10.8857468275       26.2173501207
  H        -3.6465900832       11.2609400446       27.9156230379
  C        -4.6791322859        9.4412684719       27.0934482013
  C        -1.7846067919       15.7629723994       31.4302160512
  C        -1.7343989409       13.6274432709       32.5921442030
  H         8.2197609765       14.6931963809       20.8040019119
  H         7.9118945388       12.9655878401       20.8250069916
  C         7.5345340912       13.9462241383       18.8850033505
  H         3.2977671723        6.5465024194       15.7365622138
  C         3.7713867119        8.1091792653       14.5206504818
  H         2.8723001792        9.0700727087       29.3279929060
  H         2.1107006616        9.6430505979       30.6933950244
  C         3.8741921903       10.8225853491       29.9850733555
  H        -4.5055142118        8.6823441317       26.3238734052
  H        -4.8386569374        9.0669796019       28.0911047841
  C        -6.0435991871       10.1061627986       26.8201394770
  N        -1.5816594527       16.7208052358       30.3885786165
  C        -1.9104240777       16.3798856277       32.6335219416
  C        -2.0033995416       14.2212916738       33.8104189199
  H        -1.6313303488       12.5166472404       32.5108561531
  H         7.8954618800       13.0449656893       18.5058323812
  H         6.6459213743       14.2958565988       18.3661178985
  H         8.2171334802       14.6913995736       18.5047311859
  S         4.2410294601        9.6784276525       14.0618115984
  C         3.9308618776        7.1122253881       13.4530514367
  H         4.0027276869       11.4857886206       29.1339646824
  H         3.7472555654       11.3036389580       30.9709377321
  C         5.1110943480        9.8802381054       29.9434014001
  H        -6.0489530367       11.0671170287       27.2943424409
  H        -6.8749218226        9.5827829663       27.2669473542
  C        -6.3105971442       10.1629771972       25.2785768380
  S        -1.6342004875       18.2001664460       31.0124329363
  N        -1.9423706690       17.7770949756       32.5581795714
  C        -2.1631462192       15.6755467216       33.8526332248
  H        -2.1624260546       13.5802182325       34.6421402952
  C         4.3529641662        9.0504076842       12.4093100340
  N         4.2848648124        7.6437706197       12.3138139647
  O         3.9524159121        5.8979631758       13.6006311448
  H         6.0319371202       10.4582695924       29.7975300879
  H         4.9799780736        9.2187334169       29.1092097646
  C         5.4139694129        8.9744544999       31.1002303070
  H        -5.4975983387       10.7090784177       24.7687342270
  H        -6.1949411984        9.1152242524       24.8476776458
  C        -7.5851981466       10.8804493886       24.9512654948
  C        -2.5428826421       16.4420964084       35.0193176308
  S         4.6611970712       10.0157690856       10.9199491455
  C         4.3297082885        6.9392303255       11.0655300590
  H         6.1559769432        9.3951406103       31.7916458327
  H         4.5023067278        8.8780461938       31.6894345058
  C         5.9642654766        7.5332552181       30.6767511585
  H        -7.5727346880       11.1640386072       23.9111191966
  H        -7.6767999979       11.7606889658       25.5941225504
  C        -8.8234253472       10.0266277945       25.1128349562
  H        -2.2501647401       17.4657248732       34.8262313718
  C        -3.0758183694       16.0953623137       36.2377240187
  H         5.1276848195        7.3431491064       10.3580714279
  H         4.7118615240        5.9393000519       11.1691318975
  C         2.9447645398        6.8715660014       10.4906980099
  H         6.8323649239        7.5399124501       30.0237493228
  H         5.2532265255        6.9660764524       30.1207635899
  C         6.2752275720        6.6959888740       31.9019846418
  H        -9.5682146317       10.1090155224       24.2853844540
  H        -8.4327037238        9.0223019650       25.2912908329
  C        -9.6815230936       10.4790235819       26.2914175959
  S        -3.7140233618       14.5288626945       36.7830531179
  C        -3.0811582876       17.1408396923       37.2780681180
  H         2.2070313045        6.9936292900       11.2899080865
  H         2.7784965120        7.5329775269        9.7278314666
  H         2.6471213076        5.9403198994       10.0309590267
  H         6.3439450532        5.5580893486       31.6636129707
  H         5.4309133937        6.7946881371       32.6109132681
  H         7.0972028331        7.0457694800       32.4821602445
  H       -10.5498465520       10.9899810599       25.8178537265
  H        -8.9938530365       10.9526997005       26.9589994593
  H       -10.0435420003        9.5647470564       26.6918688912
  C        -3.7577492067       15.2331872381       38.3374907722
  N        -3.6131608433       16.5799820595       38.3925192075
  O        -2.9454922392       18.3422806922       37.1428919973
  S        -4.6025595238       14.5131952846       39.7044929429
  C        -3.8141435704       17.4524823757       39.4993501884
  H        -4.2354841506       18.4207372370       39.2967764321
  H        -4.5323978958       17.0123175638       40.2047359717
  C        -2.4246465179       17.4869100780       40.1895993689
  H        -2.5405122179       17.2296600281       41.2232103090
  H        -1.8768777174       16.6759146552       39.8222450407
  H        -1.9394801908       18.4304985705       39.9204716579
