352
i=
  H         2.4519791614        3.2185212672       13.0348734920
  C         2.8439368821        2.2003259067       12.8053881939
  H         2.4783456625        1.5104247611       13.4781183182
  C         2.3675045021        1.7833892559       11.3747643641
  C         4.3599245862        2.3131655960       13.1153906783
  C         3.4014888395        2.1022519212       10.2151976835
  H         1.4905851341        2.3771913121       11.2101290324
  H         2.0313095574        0.8065410896       11.4886039030
  H         4.9279830144        1.5844031404       12.5649915988
  H         4.5861520953        2.1416890144       14.2170055107
  H         4.6749521132        3.3315475756       12.8554424215
  C         4.1726197687        0.8661507235        9.6762155510
  H         2.8109178901        2.4810105486        9.3774161994
  H         4.1103514362        2.8883799082       10.4494960884
  C         4.9622997658        1.2524888597        8.4311473275
  H         3.5001624461        0.0300001442        9.5463352487
  H         4.8414908621        0.5941262623       10.4941444449
  C         6.1413299042        2.2563567314        8.6219851633
  H         4.2106260898        1.6959560541        7.7499910705
  H         5.2793281002        0.3561771845        7.8870674876
  C         7.4902230524        1.6035258548        8.8356540188
  H         6.2638805777        2.8300713886        7.6900121644
  H         6.0492620730        2.8822168276        9.4841104299
  C         8.6872159185        2.5564099730        9.1530382073
  H         7.6821521895        1.0441970268        7.9007141633
  H         7.3323004700        0.8952883330        9.7076598762
  C         8.2472489463        3.8261485683        9.8663707632
  C         9.1605587924        3.3172364380        7.9596084673
  C         9.7605687426        1.9138653812        9.9597626547
  C         8.6292677106        4.9836158985        9.1622592864
  C         7.7540655616        4.1668029005       11.1074401579
  C         9.2289709059        4.6766032219        7.9803360712
  C         9.5907474269        2.7660439887        6.7553106786
  H         9.4171115953        1.3160689919       10.8140295551
  H        10.2697448753        1.1577920267        9.3134359639
  C        10.8172598554        2.8623514701       10.4186405120
  S         8.2527191677        6.4224261560        9.8815476408
  C         7.7292271539        5.5223885728       11.2814287244
  H         7.5123542541        3.3901092228       11.8275967545
  C         9.5746535989        5.3657729992        6.8320149248
  H         9.5474148441        1.6915640662        6.7177191956
  C         9.9873732783        3.4106757597        5.6524796960
  H        10.3995918624        3.5143947913       11.1846242001
  H        11.1525536372        3.4267132521        9.4942140204
  C        11.9421714903        2.2221922885       11.1290375684
  C         7.3409621240        6.2364993681       12.5391337021
  C         9.9147155447        4.7468247791        5.5870670537
  H         9.4017449775        6.4253854324        6.8486842967
  C        10.4904520117        3.0559376800        4.4069470510
  H        12.6948026509        2.9573138830       11.0970517552
  H        12.3136615467        1.4238604120       10.4781293384
  C        11.5433156539        1.6505977187       12.5233470666
  C         7.3802630652        7.5926081510       12.8057326713
  C         7.0718781656        5.3821710449       13.7524533423
  C        10.2495178995        5.4539081059        4.2926297202
  C        10.6375257247        4.1625031523        3.6186333019
  S        10.9360046618        1.5088657365        3.7134858270
  H        10.5956241905        2.0311927453       12.8668495693
  H        11.5294370650        0.6147406484       12.3871582125
  C        12.6140729165        2.0429646441       13.5799559034
  N         7.6041115895        8.5878833021       11.8721147849
  C         7.2001485181        8.0772498777       14.1432933226
  C         6.9559851037        5.8390396742       15.0786323598
  H         7.0484403882        4.3409376232       13.6448236880
  C        11.5168998407        6.3897376144        4.3818144654
  C         9.0044886494        6.1439256404        3.6418865641
  C        11.0964476210        3.7985012980        2.3438428401
  C        11.2688900413        2.3991938067        2.3282054922
  H        12.7409673415        3.1816356343       13.6040880420
  H        13.5389010165        1.5581410162       13.2336862151
  C        12.4138831678        1.4221674250       14.8955402116
  S         7.4743347391       10.0004893365       12.6370236280
  N         7.1155475615        9.4993843475       14.1183016129
  C         6.9365771642        7.3233173881       15.3249610900
  H         6.8576543953        5.1670893808       15.8817552191
  H        11.3178202508        7.1420148321        5.2172245504
  H        11.8064013679        6.9186747974        3.4375826671
  C        12.8001038664        5.6337084028        4.7514352089
  H         8.6067126380        6.7394172675        4.4636086452
  H         9.2702666164        6.9336077969        2.8992646825
  C         7.8104685237        5.2523188525        3.3154982928
  H        11.1491129988        4.5350577999        1.5548168359
  C        11.6758737125        1.6499262609        1.1328105903
  H        11.4806751577        1.7315853640       15.3579620644
  H        12.3295962259        0.3339159993       14.7702976656
  C        13.5435214408        1.6941370897       15.8482454871
  C         6.6993486742        7.9469512752       16.5703606619
  H        12.4839174875        4.8818202894        5.4959517602
  H        13.1622667551        5.1400529242        3.8724128556
  C        13.9641321889        6.4698380433        5.4465466479
  H         7.4773779202        4.7610376607        4.2338833249
  H         8.0423706020        4.4798755686        2.6477592968
  C         6.5860256494        5.9157364466        2.8115644405
  C        11.7068008256        0.2103426206        0.9671122386
  C        12.0261496125        2.3963772151       -0.1278231985
  H        14.3204592981        2.3727046160       15.4517069135
  H        14.2559602282        0.8477477284       15.9827718688
  C        12.9846637889        2.2730625540       17.1518309265
  H         6.8442715218        8.9749842304       16.6516706353
  C         6.2320676568        7.5276508890       17.7709328007
  H        13.6877481844        7.2018312425        6.2353414848
  H        14.4449969541        7.0310723232        4.6737556027
  C        14.9068357319        5.5105615104        6.1066859241
  H         5.6115779156        5.5609269548        3.1761958235
  H         6.5909809302        6.9148686879        3.2575339594
  C         6.6442066808        6.0766495905        1.2423614482
  N        11.3537032791       -0.8052058860        1.8578748001
  C        12.1004460599       -0.3732117908       -0.2219996427
  C        12.3907282667        1.7897282233       -1.3478641942
  H        11.9360154367        3.4201426534       -0.1204289403
  H        13.8126230863        2.3513590743       17.7780336353
  H        12.3641898211        1.4873297812       17.5175920427
  H        12.5060619718        3.1934286718       16.9986550654
  S         5.7959207026        5.9211524451       18.1862704976
  C         6.2936775191        8.5454559948       18.8834326620
  H        14.2542625427        4.9742905808        6.7669515084
  H        15.3523564281        4.8830304111        5.3703187922
  C        16.0498082279        6.3368552685        6.7542796045
  H         6.8632922734        5.0855663665        0.8985793608
  H         7.4041362942        6.7234234818        0.9513231568
  C         5.3016045480        6.5773747424        0.7771952917
  S        11.4634195034       -2.2565812581        1.1683569117
  N        12.1891496519       -1.7458657816       -0.1503523093
  C        12.5105976475        0.2914680534       -1.3946832948
  H        12.3477529050        2.3379621735       -2.2489347497
  C         5.6328239824        6.5721239164       19.7844757619
  N         5.9390001973        7.8844740343       19.9915361469
  O         6.6256596577        9.7145909744       18.8231669301
  H        16.6648871523        6.8927507174        6.0678329003
  H        15.6589789189        7.0596454983        7.3638259954
  C        16.8727902593        5.3290028423        7.5395865431
  H         5.1528491302        6.7440554887       -0.2881236499
  H         4.5627541770        5.8071069228        0.9642259128
  C         4.8039271157        7.8692571567        1.4626585731
  C        12.7790933924       -0.4770783559       -2.5540598126
  S         5.3746651360        5.4614295708       21.1071176648
  C         6.1254862574        8.4949199990       21.2843048711
  H        16.2343330985        4.9518121786        8.3853646010
  H        17.0739109989        4.4862098911        6.9121230073
  C        18.1929644733        5.8815284815        7.9787790333
  H         5.7100918363        8.4029958523        1.7335579522
  H         4.2492211501        7.5730944948        2.4056913621
  C         3.8347000504        8.7849392336        0.6381968200
  H        12.7535940466       -1.5944201345       -2.4382271107
  C        13.2177717181       -0.0961274681       -3.8117004903
  H         5.4444970832        7.9523724788       21.9367111624
  H         5.7611673185        9.5030988593       21.3189433717
  C         7.5696026690        8.4811694066       21.7005106923
  H        18.7688970345        5.3576472175        8.7779325548
  H        17.9749672409        6.8543950898        8.4928517395
  C        19.0716782722        6.0537803153        6.7600825623
  H         4.3843319762        9.1885248234       -0.1228752710
  H         3.0313708789        8.1992156024        0.2100024542
  C         3.1418538915        9.8018930479        1.4767616934
  S        13.9781439483        1.4252219532       -4.1722865685
  C        13.3661783214       -1.1270620758       -4.8861117206
  H         8.2246800130        8.5578696716       20.8129170891
  H         7.8758700285        7.4661189798       22.0909654991
  H         7.8377634078        9.1835237172       22.4025597045
  H        18.9002592885        7.0845148115        6.3427188225
  H        20.1388992856        5.9890168933        7.0491402798
  H        18.8738180079        5.2698808429        6.0495988028
  H         3.8553106093       10.5532408605        1.6312163116
  H         2.3335536772       10.3311868412        0.8973159267
  H         2.6526911912        9.4965911137        2.4235638421
  C        14.2723464203        0.8310705333       -5.8277473002
  N        14.0182058656       -0.5145627392       -5.9102123256
  O        12.9065266354       -2.2266408647       -4.8005071029
  S        15.0757717405        1.6084748830       -7.2054213048
  C        14.3397967230       -1.3383791829       -7.0070163160
  H        14.4249323790       -2.3888621826       -6.7574539162
  H        15.2717521963       -1.0126672523       -7.4767449518
  C        13.1884570445       -1.1906374639       -8.1545294173
  H        13.6565442017       -1.0648355656       -9.1489278664
  H        12.5811662375       -0.3119712348       -8.0429322080
  H        12.5517283833       -2.0750279101       -8.2269894884
  H        -1.6107163503       13.1571586938       16.6390097637
  C        -2.3553089239       13.8538763449       16.1975109190
  H        -1.7587246639       14.5833961790       15.7515220433
  C        -3.2826294482       14.5214191180       17.2711973403
  C        -3.1043219409       13.0511266478       15.0974444768
  C        -3.4218716587       13.5747309776       18.4966106417
  H        -2.8113274657       15.4631919426       17.5873210121
  H        -4.2562301937       14.6955759915       16.8677138846
  H        -3.9918509880       12.6523377363       15.5802413334
  H        -3.3369160330       13.7695162778       14.2508410493
  H        -2.5162365877       12.2449646782       14.5500918911
  C        -2.1965104772       13.7223829616       19.5120344579
  H        -3.5667366620       12.5709431674       18.1248070305
  H        -4.3434972988       13.5641734249       19.0441966775
  C        -2.5372798134       13.2061922060       20.9247367788
  H        -1.3715093294       13.1633407319       19.0874920326
  H        -1.8189067541       14.6871195710       19.7112719795
  C        -1.3720223424       12.4920396541       21.5214858922
  H        -3.4329891880       12.5888776573       20.9197777692
  H        -2.8282328517       14.0982997539       21.4803573293
  C        -0.4668233214       13.4014083475       22.2473558012
  H        -1.7301320609       11.7376917607       22.2599509076
  H        -0.8133645658       11.9399961590       20.7449713672
  C         0.7034552422       12.7854741204       23.0173467036
  H        -0.1827775839       14.1568973569       21.6131226223
  H        -1.0834321130       13.9038227354       22.9958863201
  C         1.1467563587       11.4844742856       22.3642927959
  C         0.2252702239       12.1246158166       24.2848206544
  C         1.7471721615       13.8370022624       23.2280298995
  C         0.8512835239       10.3714920382       23.1223323123
  C         1.8239310377       11.1365107758       21.1995639350
  C         0.3418458399       10.7685590426       24.3746627389
  C        -0.2037527662       12.7080833822       25.4731999591
  H         2.1436052335       14.2411978090       22.3514691964
  H         1.2532417683       14.5781905766       23.8264370861
  C         3.0243132535       13.3198084551       23.9834961685
  S         1.2708250087        8.8538709312       22.4783506912
  C         1.9148935432        9.7470766829       21.1194972443
  H         2.1107804314       11.9307428728       20.5100473278
  C         0.0350936207       10.1858568861       25.5562697319
  H        -0.3478855906       13.7904369152       25.5514049678
  C        -0.5583355046       12.0511755106       26.6267792287
  H         3.3230476041       12.4125714127       23.3878642846
  H         2.7289460050       12.7989138243       24.8668192179
  C         4.2353157633       14.3236941164       24.3016500896
  C         2.3966364236        9.0797015882       19.9278946310
  C        -0.4932607263       10.7083549855       26.6890632253
  H         0.2763651242        9.1314191621       25.6058776322
  C        -0.9523431586       12.4512075991       27.8454668275
  H         4.9951973553       13.8278096756       24.8764724209
  H         3.8804325912       15.1035724011       24.9311433790
  C         4.9201759425       14.8185940236       23.0791093068
  C         2.3089415843        7.6595039450       19.6246266451
  C         2.8068817746        9.8951560170       18.7620522384
  C        -0.8143763410       10.0038077534       27.9255545296
  C        -1.0871771243       11.3578415946       28.6800363122
  S        -1.1477169190       13.9770914454       28.7507973584
  H         5.7701641501       15.4396585064       23.4547142082
  H         4.2704665586       15.3713159227       22.4127982305
  C         5.4927163444       13.7011155485       22.2626609167
  N         1.7861548880        6.6682605881       20.5104157835
  C         2.6443076515        7.0870689625       18.4022340694
  C         3.1027843914        9.3184776551       17.5377807446
  H         2.9764462987       10.9433164256       18.8328292153
  C         0.3654503084        9.2017822804       28.5025102994
  C        -2.1384607873        9.1560221238       27.6628910408
  C        -1.5904221363       11.7324963134       29.9307254371
  C        -1.4971987403       13.1034700172       30.1825695956
  H         6.5750475463       13.7777667714       21.9343695156
  H         5.3153586075       12.7175131887       22.7153362249
  C         4.9163804406       13.6916272203       20.8308751436
  S         2.1088904455        5.2550742731       19.8737225770
  N         2.4554543591        5.7109559306       18.3526058059
  C         2.9411901563        7.8948197833       17.2900618387
  H         3.3544285828        9.8666015112       16.6774510234
  H         0.8762652261        8.4964239691       27.7839062652
  H         0.0011038218        8.6123973137       29.3999355010
  C         1.6113894610       10.0039147834       28.8177962665
  H        -2.0129669433        8.5615147564       26.7313670400
  H        -2.2976289864        8.4170621311       28.5436570765
  C        -3.4184490572       10.0322747860       27.4298061126
  H        -1.7723446899       10.9283209811       30.6541210883
  C        -1.8185855872       13.7634950215       31.4834703978
  H         4.9887839857       14.7491024789       20.4520481274
  H         3.8144580539       13.6214831960       20.8783086362
  C         5.5438165732       12.7344074776       19.7968669492
  C         3.1215390010        7.2422257268       16.0589848818
  H         2.0033632655       10.4825258209       27.9247194004
  H         1.4305645266       10.8061418028       29.5310885119
  C         2.6012409699        9.1524732106       29.5195533001
  H        -3.4573839378       10.8547570009       26.6805456605
  H        -3.7480890283       10.5150803450       28.3443146997
  C        -4.5601726696        9.1041087674       27.1523297652
  C        -1.6924645644       15.0984783202       31.8203220932
  C        -2.2598904122       12.8504246165       32.5748175120
  H         5.7605079526       11.7715862894       20.2151364256
  H         4.6857407314       12.4160380642       19.1040083048
  C         6.8039659519       13.2941963923       19.1255449381
  H         2.9523346859        6.1404828081       16.0271863786
  C         3.4959021695        7.5637968884       14.8132033598
  H         3.0239819417        8.3904402779       28.8817713781
  H         2.0944765901        8.5773946961       30.3573936192
  C         3.6742368391       10.1016887018       29.9998252358
  H        -4.2896563119        8.3556245667       26.3969204770
  H        -4.6807483332        8.4693688543       28.0514548463
  C        -5.9700929449        9.8198198518       26.9337331386
  N        -1.2358065375       16.1162858295       30.9243534645
  C        -2.0108233799       15.6823515388       33.0299918590
  C        -2.5692817289       13.3982018830       33.7998483537
  H        -2.4320463845       11.7945087176       32.4458357034
  H         7.3357268461       12.6682590382       18.3348407051
  H         6.5249399979       14.2385603420       18.7248559240
  H         7.5234613021       13.4378433689       19.8503891802
  S         3.6735049150        9.2343051859       14.2436233217
  C         3.6426817801        6.4820718953       13.8198555558
  H         3.8233372487       10.7670119141       29.1342722712
  H         3.4411903613       10.7070016968       30.8710151277
  C         5.0588091783        9.4100706194       30.2053819867
  H        -6.1551616120       10.5457816819       27.7056057569
  H        -6.7790304820        9.0773466435       26.9974490892
  C        -6.1400022081       10.4047467309       25.5924412961
  S        -1.1551618008       17.5122538463       31.7146749019
  N        -1.8272341610       17.0397811604       33.1151682822
  C        -2.5361477272       14.8934961488       34.0426772720
  H        -2.8849641066       12.7934021942       34.5541549683
  C         3.8982028182        8.4272851173       12.6457231657
  N         3.9523629579        7.1011716373       12.6469943550
  O         3.5679065845        5.2414593709       14.0222105862
  H         5.7297983040       10.2963979628       30.4609940227
  H         5.3427920251        8.9861025344       29.2310274189
  C         5.2038389224        8.3821584236       31.3698892801
  H        -5.4387219113       11.1363568355       25.4581654964
  H        -5.7782318015        9.6612545762       24.9513726129
  C        -7.3786194874       10.9234433648       25.2638905739
  C        -2.7256556727       15.4888535261       35.2631993972
  S         4.1357783413        9.4300462993       11.1449219583
  C         4.0508307265        6.3847573221       11.3747424695
  H         5.6631653062        8.8714194401       32.2456821884
  H         4.1972015508        8.1220912024       31.7086946691
  C         5.8816157894        7.0920311528       30.9506518588
  H        -7.2104946120       11.5074176459       24.3860911239
  H        -7.6801326335       11.5554118170       26.0892693628
  C        -8.4902862463        9.9319068326       24.9212420019
  H        -2.1813300675       16.3820086775       35.4435917554
  C        -3.2128650350       15.0064875747       36.4664446033
  H         4.7994521615        6.8020925654       10.7191957173
  H         4.4957619964        5.4485825551       11.5042011862
  C         2.6450856368        6.2067871081       10.7467957674
  H         6.8087599478        7.2255809059       30.4417141411
  H         5.2476049395        6.6391146739       30.1978231386
  C         5.9877068722        6.1436243267       32.1385818755
  H        -8.9197380009       10.3508472219       24.0194073168
  H        -8.2213346146        8.8870517367       24.6896267401
  C        -9.6254113934        9.9780014518       25.9859312381
  S        -4.0047573470       13.5499453129       36.8321623178
  C        -3.1700427790       15.9972621659       37.5710819843
  H         2.6746734268        5.2433138968       10.2725702043
  H         1.7347381683        6.1811062580       11.4492215869
  H         2.5074336364        6.8605481379        9.8691337243
  H         6.8305435104        5.5187377093       31.9673933978
  H         5.2016265113        5.4043586792       32.2759067269
  H         6.1867638280        6.6976187638       33.0374647792
  H        -9.5761550380       10.9511144483       26.5238863758
  H        -9.5196696688        9.2834901830       26.7427688976
  H       -10.5681663389        9.7420398087       25.4965882269
  C        -4.1699429904       14.2007603818       38.4788339737
  N        -3.6994066990       15.4905699848       38.6466429505
  O        -2.7724670673       17.1630497689       37.4206822196
  S        -5.1658029320       13.3485226132       39.7602043959
  C        -3.9150136424       16.1341961845       39.9351146665
  H        -4.5891441454       16.9930806348       39.7600301714
  H        -4.3439012763       15.5675246367       40.7542223516
  C        -2.5563988331       16.6101033414       40.4853433432
  H        -2.4075189567       17.6543885752       40.2349785508
  H        -2.6681400321       16.5954619509       41.5771095399
  H        -1.7178360557       15.9296787096       40.4129063916
