352
i=
  H         6.0040235708        2.5831726339       12.7798084901
  C         4.9378141044        2.8085499748       12.8873024692
  H         5.0145639726        3.8860087119       12.6311709650
  C         4.0276984245        2.0538677756       11.9058840901
  C         4.4478897443        2.7196397229       14.3913829221
  C         4.3354219101        2.3701721709       10.4325338974
  H         3.0538899431        2.4683713365       12.0670498819
  H         3.9422997747        1.0228639089       12.1999490886
  H         4.2733637520        3.6782006909       14.9205716669
  H         5.2191951285        2.2512373330       14.9629160499
  H         3.6234743946        2.0968538634       14.7088001485
  C         5.1436505380        1.2695853628        9.7964323087
  H         3.3932523992        2.4982426674        9.9784264211
  H         4.7503176918        3.3705714738       10.2378458623
  C         5.8325816421        1.7264907218        8.5203553933
  H         4.4857881056        0.4483057990        9.5602051195
  H         5.8860295865        0.9541115629       10.5021149909
  C         7.0060759398        2.6330992795        8.8299195177
  H         5.0080519740        2.1820473297        7.9571742431
  H         6.1818380354        0.9028220187        7.8698611632
  C         8.3407171918        1.9760527907        9.1529467349
  H         7.1224855988        3.3112199055        8.0377366114
  H         6.6790524144        3.2929425688        9.6257476864
  C         9.5215813801        3.0208740073        9.3120670749
  H         8.6235742003        1.3349032951        8.3461014474
  H         8.3158903626        1.3452718051       10.0323851753
  C         9.0305523979        4.3737110242        9.9921529546
  C         9.8626683110        3.7339731257        8.0138391866
  C        10.7489948672        2.4291312555       10.0340440539
  C         9.2586587760        5.4619157055        9.1583826009
  C         8.4026467633        4.7606042180       11.1786037328
  C         9.7554547293        5.0772628326        7.9591662911
  C        10.3238977331        3.1627877873        6.8204738712
  H        10.4661969948        1.9316367583       10.9765969639
  H        11.1172936720        1.5909206853        9.4395790029
  C        11.9474061120        3.3945798233       10.1646934627
  S         8.7545962628        6.9903728455        9.8305634555
  C         8.2861476442        6.1413387138       11.2984943532
  H         8.0495924540        3.9397551805       11.7619553695
  C        10.0216797871        5.7657158820        6.7989129639
  H        10.2540643411        2.0953292146        6.8356934833
  C        10.5756642727        3.8107649882        5.6671052266
  H        11.6211602261        4.3828093486       10.4431551882
  H        12.4198899853        3.5698229205        9.1757541931
  C        13.0850396605        2.8115601967       10.9474710015
  C         7.8204514639        6.7391510716       12.5934403778
  C        10.4226873314        5.1438356812        5.6068392363
  H         9.8742401194        6.8164556751        6.8366668186
  C        10.9597627057        3.3639540397        4.4290313948
  H        13.9725642145        3.2314863492       10.4943141912
  H        13.1257249474        1.7369083181       10.7931759122
  C        13.0153066446        3.2354001736       12.3927250452
  C         7.7991819460        8.0912608087       12.9203439905
  C         7.2812776683        5.8779167304       13.6400340941
  C        10.8162661678        5.7965455009        4.2928195684
  C        11.1277609079        4.4175051286        3.6083509570
  S        11.1615274181        1.7936375922        3.7153568071
  H        14.0022868000        3.6347516473       12.5779812103
  H        12.2473036550        3.9365632710       12.6420717756
  C        12.7404112992        2.0281072352       13.3357623075
  N         8.2113057516        9.1246150930       12.0046859373
  C         7.5376833456        8.6044249677       14.1921884809
  C         7.1170739704        6.3576992602       14.9398030798
  H         6.9654428729        4.8172644430       13.3845162318
  C        11.9933933843        6.7702168296        4.4820711115
  C         9.6608649967        6.5868680631        3.6198535982
  C        11.4721072017        4.0139220848        2.3301246988
  C        11.5589872638        2.6191431998        2.2752547631
  H        13.5015716596        1.2761976365       13.0167243194
  H        11.7697140882        1.5660498521       13.1710746898
  C        12.8000006261        2.4342477804       14.7442480709
  S         8.0326650344       10.4982016779       12.7274910153
  N         7.6315711392        9.9751921058       14.2342561214
  C         7.1782652380        7.7951606171       15.2846130643
  H         6.7339744728        5.6923679454       15.7573248002
  H        11.5705072097        7.5210080263        5.1205434669
  H        12.2812151413        7.2555673171        3.5485850516
  C        13.2022828111        6.1642126778        5.2207770344
  H         9.4292779937        7.4788388664        4.1773992909
  H         9.9654000748        6.9975017117        2.6740311184
  C         8.3224755790        5.8407275835        3.3593529792
  H        11.5668825313        4.8142767368        1.5634097192
  C        11.7718159573        1.8317877275        1.0199683159
  H        13.8090465222        2.9545320907       14.8260202965
  H        11.9836696988        3.2127244466       14.9087494773
  C        12.7113363813        1.2982642386       15.8100647204
  C         7.0047542088        8.5559401869       16.5250585052
  H        12.9722508374        5.8983906560        6.2843526771
  H        13.4921340549        5.2421820866        4.7837904640
  C        14.3604743132        7.2125433376        5.3564522324
  H         8.0369504434        5.3539710722        4.2903689233
  H         8.4801205766        5.0506091013        2.6513142478
  C         7.2609178024        6.7263239771        2.7141832575
  C        11.8308869277        0.4317897551        0.9205758433
  C        11.9604135951        2.5750870055       -0.2308752308
  H        13.3112477509        0.4237706962       15.6633676372
  H        11.6567803939        0.9501563864       16.0082881080
  C        13.1615295692        1.9483851876       17.1207184093
  H         6.9938024909        9.5858262949       16.4968854710
  C         6.9326280930        8.0715095842       17.7807336745
  H        13.8708291750        8.1370281892        5.7296992813
  H        14.6675618261        7.4503370204        4.3742089104
  C        15.5020507714        6.7939161789        6.1425676127
  H         6.8672013252        7.4222995131        3.4564659694
  H         7.7307282265        7.1254231391        1.8164610919
  C         6.0021544914        5.9310284145        2.2145653452
  N        11.9421978178       -0.4421458979        2.0584069181
  C        12.0089747318       -0.2448715442       -0.2881897850
  C        12.0287970435        1.9879741411       -1.4629005328
  H        11.9999827483        3.6830865196       -0.1986880752
  H        12.9404161770        1.4192693194       18.0819748546
  H        12.6731820253        2.9198402300       17.2779726293
  H        14.2194968686        2.0836071682       17.0610648220
  S         6.5499945802        6.5271460169       18.3693817824
  C         6.8984409088        9.1375713944       18.8163373246
  H        15.9089544987        7.5923437744        6.7645281636
  H        15.1672814145        5.9752931465        6.8148706646
  C        16.5903067910        6.4215024460        5.1044574269
  H         5.5966076437        5.1601179972        2.8969392718
  H         6.2880438579        5.3173513898        1.3689081597
  C         4.8832997974        6.8232027906        1.5666156037
  S        11.8738443853       -1.9724387230        1.5103006402
  N        12.1218629429       -1.6337141082       -0.0849570466
  C        12.0779962906        0.5085649857       -1.5025441314
  H        12.0039008619        2.5753890002       -2.3439021299
  C         6.5605662018        7.2170231597       19.9903915036
  N         6.6109752608        8.5647152195       20.0369752687
  O         7.0328278783       10.3147410567       18.6317347112
  H        16.2642632381        5.9339635298        4.2026010439
  H        16.9824424924        7.4472064249        4.7663184875
  C        17.8130063704        5.5984846448        5.5565389564
  H         4.3820517608        6.3248306265        0.7168800949
  H         4.1362169385        6.9967921714        2.3254179342
  C         5.3378331734        8.2113196883        1.1175001576
  C        12.3023430926       -0.3712756180       -2.6204711477
  S         6.1593745812        6.2665117678       21.4518602276
  C         6.6099320405        9.3136799560       21.1966325977
  H        17.4857724850        4.7426189760        6.1895175106
  H        18.3925525705        5.3302142328        4.6980054613
  C        18.5685458595        6.4791491951        6.5764046810
  H         5.8941061839        8.2434852401        0.2300168339
  H         5.9251413418        8.6486301953        1.8777660683
  C         4.1219152941        9.1331147587        0.8579406434
  H        12.1663828836       -1.4383346300       -2.4101139417
  C        12.8990059707       -0.0615954873       -3.8315944498
  H         6.0181708798        8.7941673820       21.9780888255
  H         6.1385033265       10.3128062246       21.0277785275
  C         8.0837838587        9.5844706664       21.5946118254
  H        17.8763091798        6.6397022317        7.4211106454
  H        18.6890584288        7.4221793373        6.0450287657
  C        19.9049452608        5.8957405331        7.0654107100
  H         4.2493288294        9.8356575230       -0.0270168332
  H         3.2998933123        8.3798713058        0.6246381836
  C         3.8285231788        9.9661214826        2.1023036958
  S        13.6250191097        1.4407786070       -4.2514897643
  C        13.0292660988       -1.1802917762       -4.8553291793
  H         7.9003400548        9.8308220398       22.6040383162
  H         8.5602434431       10.4099404667       21.1205494975
  H         8.7022965686        8.7463123103       21.5817916745
  H        19.6794339042        4.8972095314        7.5650509353
  H        20.7049521855        5.7357960540        6.3725178895
  H        20.3982225569        6.4005209057        7.8096328851
  H         4.7134570576       10.6806131753        2.1110368753
  H         2.8215066282       10.3872849685        2.0703387491
  H         3.7571532591        9.3451125676        2.9806454193
  C        14.0856288590        0.6490706704       -5.8104673742
  N        13.7685500318       -0.6900653500       -5.8648756967
  O        12.3850703915       -2.1926327815       -4.8096237256
  S        14.7836483764        1.4797213308       -7.2399735323
  C        13.8696416607       -1.6021705302       -7.0482871994
  H        13.9467032256       -2.6700123019       -6.7587723698
  H        14.8074472470       -1.3377187297       -7.5749554613
  C        12.6682443122       -1.4083578392       -7.9697556319
  H        12.6238021826       -2.3396084275       -8.4817261090
  H        12.6302643291       -0.5920010899       -8.6479406740
  H        11.7126970095       -1.3363443776       -7.4179790202
  H        -2.7963739519       15.3169533987       15.9323766734
  C        -2.8429729226       14.3618814513       16.3518108081
  H        -3.7792973304       14.2618964871       16.8240598416
  C        -1.7254723539       14.0633538812       17.4624783935
  C        -2.7772455638       13.1664634992       15.3674742213
  C        -2.1299292644       13.2911232453       18.8037892023
  H        -0.8641934566       13.4671885379       17.1046207431
  H        -1.3008056313       15.1031193051       17.6960478370
  H        -2.9369877835       12.2327447352       15.9182552065
  H        -3.5257560957       13.3281854336       14.5909880474
  H        -1.7863698257       13.0889644003       14.8432242769
  C        -1.0571347817       12.9312035950       19.8277102607
  H        -2.6459521093       12.4482473090       18.4947501814
  H        -2.8164491610       13.7763904603       19.4311119578
  C        -1.6218788156       12.9260770426       21.3054635145
  H        -0.5860772761       11.9230715600       19.6629840791
  H        -0.2687529717       13.6636884238       19.7661657615
  C        -0.7040123624       12.4961512296       22.4292347650
  H        -2.4730748825       12.2458802446       21.2131718916
  H        -2.1142856901       13.9224800166       21.5311771628
  C         0.4891819084       13.4438342229       22.6004752882
  H        -1.2511363252       12.1792206931       23.3389758209
  H        -0.2665012017       11.6171318243       21.9887336709
  C         1.6979079709       12.8724794909       23.2890385104
  H         0.8574036785       13.9167766824       21.6994070936
  H         0.0797515783       14.2195301429       23.2789898289
  C         2.1063693045       11.5446695484       22.6323891042
  C         1.4001130918       12.1692934948       24.5862167632
  C         2.8728630987       13.8749950000       23.3411195995
  C         2.1042149289       10.4061816284       23.4209250422
  C         2.5507388305       11.2289309365       21.2881431651
  C         1.5616846543       10.8307011029       24.6699553991
  C         0.8284102284       12.7983282253       25.6852134808
  H         2.9290898752       14.3347710568       22.3716943255
  H         2.7825322450       14.6881766738       24.0562851890
  C         4.2157167493       13.2567599005       23.6825547368
  S         2.4776066525        8.9608176827       22.5136900663
  C         2.7578951511        9.9422160876       21.0741521786
  H         2.7567275968       12.0271885882       20.6184850185
  C         1.1309031451       10.1671151568       25.7780324982
  H         0.8293455378       13.8442038112       25.6887360566
  C         0.4993364826       12.1215365166       26.8232829743
  H         4.4567052150       12.4418872160       23.0039410475
  H         4.2812987825       12.7949242488       24.7217166446
  C         5.3843181315       14.3167406070       23.7187006336
  C         3.1825109672        9.3451405499       19.7917269675
  C         0.6099745597       10.7814972390       26.8865210772
  H         1.3119138973        9.1141988601       25.7182842891
  C        -0.0138009159       12.4649631711       28.0154790517
  H         6.1909920179       13.9975739463       24.4636201440
  H         4.9459813969       15.2806482131       24.1244058157
  C         5.9379647802       14.7145033687       22.3704435629
  C         3.1693407862        7.9513427118       19.5393032134
  C         3.5398179573       10.2698102186       18.6387459210
  C         0.1003832975       10.0629913852       28.1176865716
  C        -0.1806511918       11.3694131960       28.8330610156
  S        -0.3872645920       13.9651943541       28.8349300188
  H         6.3191639839       15.7366304926       22.4655052007
  H         5.1155630011       14.7284979292       21.6333511110
  C         7.0508218788       13.7686090696       21.9465717725
  N         2.8922314003        6.9250681237       20.4481759885
  C         3.3958378906        7.4663374521       18.2972042409
  C         3.9867065052        9.7880460142       17.4364239848
  H         3.4970582175       11.3319844504       18.9310736406
  C         1.2467330638        9.2626189739       28.7671948070
  C        -1.2043323825        9.1722211673       27.8657517200
  C        -0.6481323948       11.7696618362       30.1570549966
  C        -0.7710573110       13.1097444716       30.2514227809
  H         8.0397306882       14.2624136213       22.0080010855
  H         7.1192472732       13.0093103873       22.6581700842
  C         6.7993847414       13.2746674824       20.5840568132
  S         2.9705713722        5.5204923616       19.6293466884
  N         3.1418248591        6.1249007591       18.2015309708
  C         3.7649039246        8.3526757664       17.2008747715
  H         4.4419063872       10.4445867925       16.6668334751
  H         1.6842573974        8.5450929322       28.1184839498
  H         1.0866321029        8.6787256629       29.6499636819
  C         2.3631531215       10.1282819682       29.3194790206
  H        -0.8889244295        8.5472176072       27.0332505775
  H        -1.3228588897        8.4410542813       28.6881760852
  C        -2.5169753024        9.9209328269       27.6180049095
  H        -0.7590907187       10.9738464669       30.8612205483
  C        -1.2312726238       13.7946174252       31.5440679842
  H         6.0367381922       13.8200738086       20.0425561588
  H         6.3469884603       12.2508637956       20.6993496145
  C         8.0188454196       13.2003439300       19.6684257623
  C         3.7915942308        7.7525256692       15.8883003346
  H         2.7817417515       10.8536759714       28.6216779391
  H         2.0416834210       10.6997737908       30.1432383702
  C         3.5234741721        9.3259572564       29.9135561639
  H        -2.2912691721       10.5273585431       26.7920502687
  H        -2.7615167050       10.4730515292       28.5253740865
  C        -3.7347762371        9.0508251444       27.3799168179
  C        -1.2369405982       15.2090715613       31.8110362098
  C        -1.7122383431       12.9881821395       32.7346867118
  H         8.8941101712       13.7073543110       20.0956749739
  H         8.3994643489       12.1238985920       19.6160228754
  C         7.7915178617       13.8349219327       18.3158386794
  H         3.5337475646        6.7212456305       15.9317776890
  C         3.9656221433        8.1405282451       14.6123148471
  H         4.0859938916        8.8392107051       29.0629845895
  H         3.1480725992        8.5592122166       30.5256881323
  C         4.4761393659       10.0436572628       30.8169538681
  H        -3.5778099740        8.2734032924       26.5969083346
  H        -3.9532666435        8.4255167730       28.2495114719
  C        -4.9983203421        9.8195928765       27.0485861459
  N        -0.9679536007       16.1429216767       30.8479169403
  C        -1.6390354078       15.7670266460       32.9983840577
  C        -2.0634966081       13.6014889233       33.9408008387
  H        -1.7407981593       11.8861835264       32.6367912027
  H         6.8573790120       13.4765832876       17.9728133875
  H         7.8960999855       14.9069475004       18.2097595063
  H         8.4617864391       13.4896437680       17.5629815510
  S         4.3826143844        9.7406389515       14.0471631632
  C         3.8354346616        7.1468741310       13.5047854598
  H         4.6575873095       11.0165013548       30.4146609012
  H         4.0254786809       10.1953171088       31.7996058727
  C         5.7916925809        9.2727705272       30.9484839781
  H        -5.1173633111       10.6844424998       27.7159261687
  H        -5.8482721343        9.1817181887       27.3066368513
  C        -5.1505908528       10.2544450438       25.5819623554
  S        -1.0959477673       17.6373958833       31.4965404785
  N        -1.6726486009       17.1753547567       32.9375593337
  C        -2.0242835157       15.0757553177       34.1638839158
  H        -2.3028031998       12.9843075837       34.7839956722
  C         4.5530296255        9.0373214900       12.4768318003
  N         4.3631827729        7.7105036604       12.3999339474
  O         3.5772972055        5.9416967333       13.6846419289
  H         6.3452783628        9.8847618744       31.7045655693
  H         6.3894447205        9.3638943759       30.0060232164
  C         5.7519916609        7.8549607849       31.4443838432
  H        -4.5133072625       11.1112735800       25.4026254157
  H        -4.8085635011        9.4644228294       24.9603948290
  C        -6.5865897149       10.7496997822       25.3563251642
  C        -2.3663571844       15.7553941658       35.3590496670
  S         5.0861752845        9.8793999145       11.0132089338
  C         4.4319255981        6.9632576724       11.1798219682
  H         5.8690269291        7.9423124693       32.4953873272
  H         4.8808924819        7.2907717957       31.1917087553
  C         6.9194208395        7.1078173582       30.8434255479
  H        -6.5379413091       11.3607167075       24.4709649931
  H        -7.0635805527       11.2525301641       26.1860849444
  C        -7.4184411590        9.5541397273       24.9542765647
  H        -1.9091522812       16.7874761048       35.3493577472
  C        -3.0038495242       15.3558599622       36.5180410011
  H         5.1202802346        7.3540017106       10.3615348639
  H         4.8000519782        6.0268145836       11.4360114802
  C         3.0304703512        6.7674607441       10.5132714161
  H         7.8557252734        7.6695968417       31.0829904641
  H         6.9211722850        7.2055397201       29.7282120185
  C         7.1641452668        5.7145133231       31.4486388545
  H        -7.0518237769        9.0438240115       24.0874263467
  H        -7.3703110371        8.8605726081       25.7895859394
  C        -8.8035250038       10.0212508463       24.6160210689
  S        -3.6049983117       13.8224021219       36.8727269545
  C        -3.0988833718       16.3622307639       37.5884580797
  H         2.6582013659        7.7234031239       10.1447833838
  H         3.2407132239        6.1178660406        9.6438762930
  H         2.2301720478        6.4220627629       11.1459332291
  H         7.5570649242        5.7296716194       32.4762197868
  H         7.7367774341        5.0753275501       30.8005679223
  H         6.1580110719        5.2401427743       31.3808228469
  H        -8.8049160037       10.5236796661       23.6066371523
  H        -9.1540936509       10.6707100098       25.3990552753
  H        -9.6068597426        9.2796032091       24.4187228883
  C        -3.9961343038       14.4993357997       38.4395598188
  N        -3.7104214805       15.7885629498       38.6563509592
  O        -2.7566514784       17.4663051867       37.5262941082
  S        -4.2672080123       13.4973031638       39.8385128121
  C        -3.7500098962       16.4499677867       39.9578308809
  H        -4.1671688061       17.4399772168       39.8688297017
  H        -4.4190171751       15.9471201268       40.6529213090
  C        -2.3331461549       16.5187478844       40.5498536843
  H        -1.6839442779       17.4184972357       40.5138521287
  H        -2.5156716435       16.5519036792       41.6093535291
  H        -1.6291200023       15.6138516450       40.3881730394
