352
i=
  H         4.6328895320        1.4745998321       12.3406604527
  C         3.8108557383        2.1526398379       12.3759240764
  H         4.4680680547        2.9781541867       12.3796148098
  C         2.9787494504        2.2439258329       11.0490206602
  C         3.1021145957        2.0802164629       13.7039832081
  C         3.8347403861        2.6242230078        9.7928385838
  H         2.1744288943        2.9167409251       11.2307526565
  H         2.4596395073        1.3334777074       10.8894786419
  H         2.1047790994        1.6709505037       13.4255307106
  H         2.9758256367        2.9579232827       14.4391092338
  H         3.6542928934        1.3510835962       14.3062941426
  C         4.7359700859        1.5178643732        9.2820939733
  H         3.0397649513        2.8509279799        9.0097865475
  H         4.3288851368        3.6045470053        9.9202725789
  C         5.5410420480        1.7775362491        8.0328430460
  H         4.0236808543        0.7690005765        8.9557007524
  H         5.4217567140        1.1003794493       10.0349704415
  C         6.6791487520        2.7203637951        8.2814263862
  H         4.8405970543        2.2618536556        7.2745972307
  H         5.9097373085        0.8510632063        7.7613160818
  C         7.9112340754        2.0397417184        8.8559682923
  H         6.8482000142        3.0456322865        7.2653400111
  H         6.2867932822        3.5761232500        8.9066372842
  C         9.1212578138        2.9737441523        8.9883847565
  H         8.2313459654        1.2663420555        8.1326942038
  H         7.6592996308        1.5902507469        9.7958417989
  C         8.7221600265        4.2827133660        9.6188355200
  C         9.5300103387        3.6838173562        7.7138117912
  C        10.2830858942        2.3431900683        9.7659473636
  C         8.9768886165        5.4323099988        8.8795850785
  C         8.1602282361        4.6132085480       10.8513258039
  C         9.5038983010        5.0275088334        7.6447038493
  C         9.9723884464        3.0613082094        6.4807230337
  H         9.8372408950        1.6467089455       10.4693157791
  H        10.8155894339        1.6908204733        9.0838109032
  C        11.3210116533        3.2604683332       10.4091501298
  S         8.5992810203        6.9311575661        9.7036487126
  C         8.0868740106        5.9670289180       11.0697648221
  H         7.9459976330        3.7227620204       11.4508718631
  C         9.9309162404        5.6508144600        6.4658892557
  H         9.8918969819        2.0247397681        6.4175034816
  C        10.3949856205        3.7029618677        5.3568219493
  H        10.7552099764        3.9237960243       11.1115286375
  H        11.6975743769        4.0706841327        9.7370120334
  C        12.5031499792        2.4972097008       11.0828610961
  C         7.7988822157        6.6486988645       12.3927550853
  C        10.4368396609        5.0302257633        5.2878940344
  H        10.0181068309        6.6976000409        6.4987834503
  C        10.9467168586        3.2735975101        4.1268178466
  H        13.2430318110        3.3195474813       11.1456850502
  H        13.0387971606        1.6991043649       10.5065803160
  C        12.0834463431        2.0809052704       12.4896739269
  C         7.8548163239        8.0414356561       12.6546083843
  C         7.4263011869        5.8200105607       13.5385143605
  C        11.0002637652        5.7068846618        4.0742892786
  C        11.2319892049        4.3640805479        3.3359409203
  S        11.2735553428        1.7970256847        3.3796614619
  H        11.2322904967        2.6640369973       12.8772135240
  H        11.8310505263        1.0104660363       12.4294655667
  C        13.4102138934        2.2371833147       13.3219904804
  N         8.1932996195        9.0129092152       11.7030135922
  C         7.5501239307        8.6360220342       13.8722517103
  C         7.1552713977        6.3664831528       14.7947678080
  H         7.3288625381        4.7441738203       13.3678871617
  C        12.3487382247        6.4899609463        4.3952376023
  C         9.9703020311        6.4800258333        3.2402342471
  C        11.5265715781        3.9708012696        1.9621284636
  C        11.6609723260        2.6287444668        1.8798919974
  H        13.6139057793        3.3126317798       13.5239838610
  H        14.2782422708        1.9293807696       12.7251230585
  C        13.3144655152        1.6267062612       14.7539111257
  S         7.9977406835       10.5027401641       12.3900488749
  N         7.4175029342       10.0305798258       13.8306952294
  C         7.2837949118        7.8386255070       14.9710597088
  H         7.0154813063        5.6963830972       15.6646233525
  H        12.2458595878        7.1918097645        5.2304386251
  H        12.7027459575        7.0940304585        3.5817468106
  C        13.5766626600        5.6589288996        4.8728078857
  H         9.7323030176        7.4344528407        3.7061766266
  H        10.4073289615        6.7828777498        2.2805284863
  C         8.7160849764        5.6635979301        2.8722949284
  H        11.7428981760        4.7529657652        1.1854453127
  C        11.9751376698        1.8943188587        0.5506657854
  H        13.3827259436        0.5188197847       14.6687914712
  H        14.1097297080        1.9999028918       15.3642778357
  C        11.9305513771        2.0564122886       15.3541225834
  C         7.0171654464        8.4244179114       16.2353549649
  H        13.4769737847        5.0968436192        5.8109079261
  H        13.7699938560        4.9036046136        4.2187597060
  C        14.8550083797        6.4801079878        5.0832253888
  H         8.2194256576        5.2926455506        3.7891843982
  H         9.0233198399        4.8458537050        2.2437782281
  C         7.5926096889        6.2653568712        2.1237420601
  C        12.0564159693        0.5204763462        0.4026677951
  C        12.1306208152        2.6612560736       -0.6743516561
  H        11.1213799067        1.2853954228       15.0490164775
  H        11.5359252741        3.0687877202       15.0641977453
  C        11.8987773986        1.9828081113       16.8901452151
  H         7.2445325584        9.4573363866       16.1830613188
  C         6.7274477105        7.9958380081       17.5092696989
  H        14.6794310081        7.2196018150        5.8827805361
  H        15.0549887706        6.8897815155        4.1334183589
  C        16.0424417367        5.6799446203        5.5489229413
  H         7.4434014624        7.2582530985        2.5084765202
  H         7.9313604781        6.3542969632        1.0571615851
  C         6.3303294976        5.4819712762        2.2494876509
  N        11.9274079080       -0.4234856610        1.4216725690
  C        12.3170153393       -0.1864916949       -0.8106556045
  C        12.3953215482        2.0404338855       -1.8794761213
  H        11.7713441035        3.6695023537       -0.5596082759
  H        12.4856895211        1.1127074595       17.1225949794
  H        10.9181811704        1.8347895230       17.2664137000
  H        12.3402170863        2.7914233736       17.4263811401
  S         6.3160816872        6.4048821194       18.0804795441
  C         6.6610424449        9.0733831000       18.5151493198
  H        15.6363294604        4.8878606217        6.1592082919
  H        16.7179816408        5.3847920487        4.7511655633
  C        16.9157726722        6.4576829977        6.4221040199
  H         6.0098219676        5.2227526664        3.3069261805
  H         6.4888281057        4.5161901408        1.7190346783
  C         5.2060334515        6.2616984872        1.5636968335
  S        12.0457441289       -1.9170061355        0.8071068670
  N        12.2832942826       -1.5598948825       -0.7311989286
  C        12.4954735769        0.5787039509       -1.9682079601
  H        12.2963098953        2.7446495753       -2.6768049048
  C         5.9233993147        7.2189629849       19.6709981114
  N         6.1696024128        8.5803059997       19.6669119564
  O         6.8973787483       10.2479087917       18.2162438493
  H        17.1346017762        7.3443284673        5.8190987328
  H        16.5029814970        6.8792553888        7.2788819316
  C        18.1765183979        5.6582999921        6.9021693095
  H         5.6170473859        6.5451609789        0.5664131321
  H         4.3595928999        5.6552051137        1.3481882247
  C         4.7343778101        7.4927240330        2.4122631260
  C        12.6858652974       -0.1074053554       -3.1677381063
  S         5.2346249367        6.4845254652       21.1099433423
  C         6.1493549281        9.3128700330       20.8882011604
  H        18.1950598973        5.4920599962        7.9070089155
  H        18.1933417364        4.6950853773        6.3469200208
  C        19.4922297257        6.2715031142        6.5017007107
  H         5.3787384112        7.8468778034        3.2391216383
  H         3.9785572641        7.0584701010        3.1208739572
  C         4.2167359198        8.7059417740        1.5993968445
  H        12.7410299058       -1.2123945244       -3.1108864555
  C        13.1264549441        0.2762485465       -4.4115313329
  H         5.3036344807        9.0769457372       21.5127918582
  H         6.0052794469       10.3217238645       20.6766227770
  C         7.4667140393        9.1357149104       21.6724593745
  H        20.2538077342        5.6578275654        6.9910275663
  H        19.6370870960        7.2282292022        7.0072071908
  C        19.7518984959        6.4825949185        4.9468638027
  H         4.7522229930        8.8227491833        0.6770427777
  H         3.2341074228        8.4722790068        1.3176243670
  C         4.1893712707       10.0294750773        2.3740611621
  S        13.5559955351        1.8677298782       -4.8104995830
  C        13.4330187137       -0.7722169986       -5.4523159868
  H         7.8362542383        8.1658040628       21.8904800411
  H         7.3602970248        9.6444879310       22.6064049236
  H         8.2719979249        9.6074363942       21.1039234392
  H        20.0323739614        5.5751865550        4.4451934162
  H        18.8178358055        6.7321043866        4.4731050859
  H        20.5755175425        7.2019876235        4.8257633026
  H         4.0713514244        9.8385282143        3.4647969284
  H         5.1052812841       10.6605611885        2.3340394361
  H         3.3606340068       10.6633718396        2.1207601438
  C        13.9136975076        1.1991604324       -6.3724849122
  N        13.8489731435       -0.1484183976       -6.5226670099
  O        13.1509905214       -1.9463187379       -5.2898326459
  S        14.5570086216        2.0037135638       -7.7694269144
  C        14.0811876563       -0.9766384408       -7.6825689165
  H        14.1555705368       -1.9846753453       -7.4081536490
  H        15.1131352741       -0.6691252373       -8.0238652891
  C        13.0767554304       -0.6729723848       -8.8412768761
  H        13.5844555274       -0.1074395069       -9.5047750775
  H        12.1758409113       -0.1841264256       -8.5231390517
  H        12.8679161509       -1.6362961561       -9.2206037681
  H        -3.3982512784       14.9384162622       15.5931221394
  C        -2.9335428599       14.0291843602       15.8999289937
  H        -3.7092841220       13.2786821621       16.0455996910
  C        -2.1040640214       14.1906264362       17.2021624397
  C        -2.0095339625       13.7101752529       14.7055011747
  C        -2.9456656407       13.6972152714       18.4582385673
  H        -1.1857472478       13.6342075518       17.0687447250
  H        -1.9037013016       15.2654707168       17.2691883285
  H        -2.5853598198       13.6704924378       13.7317676853
  H        -1.2440143783       14.4500818025       14.5763134737
  H        -1.4690220771       12.8113050993       14.9557914762
  C        -2.0727010415       13.1304775499       19.4615382110
  H        -3.6794419634       12.8889399346       18.1367885491
  H        -3.5531024300       14.4879581948       18.8547097259
  C        -2.5676246037       13.3667482965       20.9419242307
  H        -1.9585050660       12.0558164545       19.3592567781
  H        -1.1435194632       13.6519479544       19.5187568296
  C        -1.5755200832       12.9036985794       21.9778610415
  H        -3.5931022688       12.9192494639       21.0408298690
  H        -2.6693274637       14.4231119189       21.0683542983
  C        -0.3299647989       13.7614619462       22.2254232852
  H        -2.1624784590       12.8764146169       22.9169117122
  H        -1.2129759425       11.9240154602       21.7483807509
  C         0.9585208059       13.0228714740       22.8596005113
  H         0.0022229479       14.3357617731       21.3633945467
  H        -0.5480906637       14.5080728178       23.0036584418
  C         1.2679371143       11.6406952919       22.2569727681
  C         0.6592033005       12.4800816776       24.2493617598
  C         2.2779490050       13.9063036428       22.8406241494
  C         1.2246986231       10.6052934579       23.1886915564
  C         1.6550306508       11.2167611067       20.9847545048
  C         0.7378212065       11.1062512045       24.3890818909
  C         0.0658729078       13.0404466214       25.3912336907
  H         2.4984000329       14.1331000512       21.7785745754
  H         2.1975098410       14.8684004645       23.3508236686
  C         3.5849610740       13.3065039482       23.5403229674
  S         1.7237011622        9.1172150798       22.5016851910
  C         1.9233408866        9.8651821404       20.9677419150
  H         1.8089603215       11.9207236251       20.2119025744
  C         0.3337336827       10.4518980448       25.4856631738
  H        -0.1826429233       14.1003619290       25.3179679853
  C        -0.2231095023       12.4066138136       26.5227069467
  H         3.7450717138       12.3473380282       23.2131640025
  H         3.3782961143       13.2706472702       24.6021472218
  C         4.9033188406       14.2319723431       23.4422850162
  C         2.4110645243        9.1838485675       19.7206723988
  C        -0.1379730635       11.0517539856       26.6600724675
  H         0.5703292316        9.4368700713       25.5192187787
  C        -0.6686513007       12.7677744753       27.7796573425
  H         5.6755083708       13.7705594220       24.0623612000
  H         4.6804648219       15.0546376117       24.0765334481
  C         5.3888101150       14.3513633598       21.9865566326
  C         2.3676164664        7.7860154880       19.4900376891
  C         2.9168150462       10.0844900418       18.6446435136
  C        -0.5248140683       10.3683581786       27.8998385608
  C        -0.8082007545       11.6488303641       28.6069335941
  S        -0.9658419811       14.2456110744       28.5112705555
  H         6.3910122452       14.8217861030       21.9089053279
  H         4.7374484107       15.1018471754       21.4701044837
  C         5.3925600000       12.9920773506       21.3233466891
  N         1.8424298826        6.7955861333       20.3762118278
  C         2.7776075603        7.2816556783       18.2817043585
  C         3.2864980146        9.5541042342       17.4479782899
  H         2.9934612709       11.1755873474       18.6496700052
  C         0.6116846485        9.5531728086       28.5865953058
  C        -1.8613972990        9.6560884923       27.7658668375
  C        -1.2818088860       12.0370278286       29.8529956321
  C        -1.3378545659       13.3566723829       29.9791169141
  H         6.1996503455       12.4468918516       21.8178530100
  H         4.4011628414       12.3689234466       21.2838215727
  C         5.7280094076       13.0218499446       19.8843005022
  S         1.9643009133        5.3472416261       19.5855409320
  N         2.5423296929        5.8512087399       18.1594571936
  C         3.3220085074        8.0679062710       17.2155790373
  H         3.6064707333       10.2152149124       16.6092794172
  H         1.1249464050        8.9267727497       27.8291367259
  H         0.2206203791        8.9217666876       29.3478990439
  C         1.7814608655       10.2688744541       29.1517429214
  H        -1.8264188239        8.7213265074       27.1396739893
  H        -2.2007520326        9.2811296746       28.6736567507
  C        -3.0252638661       10.6154385518       27.3220367748
  H        -1.3803514664       11.2790021735       30.6682843904
  C        -1.5407734091       14.0920413728       31.2662413548
  H         4.9219453935       13.5748061476       19.4202158082
  H         5.5980660066       12.0593475620       19.4031045508
  C         7.0436014418       13.6842809011       19.4370779060
  C         3.6745541736        7.4375196174       15.9924572713
  H         2.2392699697       10.9305033568       28.3500667185
  H         1.4190580779       10.9609644751       29.9588833973
  C         2.8168103661        9.3363642050       29.8639017701
  H        -2.6666092862       11.2695996015       26.4902354329
  H        -3.3291438379       11.2893997278       28.0983754022
  C        -4.2774785359        9.7589924132       26.8740020315
  C        -1.6104544712       15.4673203091       31.4005465102
  C        -1.6661437559       13.3893938522       32.5768583290
  H         7.2979544950       14.5337167198       20.0841259540
  H         7.8070319071       12.9602032425       19.5952316952
  C         6.9882480923       14.0131323028       17.9366555465
  H         3.5348638046        6.4070231170       16.1676795730
  C         3.9780552555        7.8516680280       14.7270525278
  H         3.2684417070        8.5947442764       29.2301174503
  H         2.1683606238        8.9589069444       30.6662565070
  C         3.9601623810       10.2062262512       30.5021644973
  H        -3.9812295505        9.0914184733       26.0270009047
  H        -4.4271967172        8.9899055209       27.6726986714
  C        -5.5349907114       10.5352893924       26.4651289390
  N        -1.5074698920       16.3664757564       30.3519037051
  C        -1.8538828120       16.1043797236       32.6116119991
  C        -1.9248816423       14.0358071592       33.8036076873
  H        -1.6978601796       12.3329718110       32.4763071883
  H         7.7502247704       14.6951342479       17.6302442113
  H         6.9947652392       13.0853297175       17.3374591587
  H         6.0099321849       14.5551762833       17.7377311413
  S         4.2291582161        9.4534435599       14.1641376772
  C         4.0869053358        6.7965281873       13.6860273460
  H         3.9304757123       11.1809800273       30.0171013529
  H         3.8584315497       10.3837433017       31.5451707646
  C         5.3326569085        9.6377791294       30.2719160536
  H        -5.3025339939       11.5714574610       26.7868824144
  H        -6.3520809991       10.1556788731       27.0923726711
  C        -5.7151710271       10.2643988962       25.0110040501
  S        -1.4807392068       17.8569409115       30.9361894500
  N        -1.8168568867       17.4935358814       32.4593148871
  C        -2.1668686819       15.5114080719       33.8312932204
  H        -2.0545828692       13.4557000333       34.7183073419
  C         4.5236798422        8.6928466003       12.5861072771
  N         4.5357441128        7.3195757735       12.6141904928
  O         3.8502324819        5.6250329065       13.8855573154
  H         6.1103583889       10.3835819790       30.4298033000
  H         5.3300490502        9.4535257954       29.2043606751
  C         5.8135750029        8.4092307231       31.1151048146
  H        -4.9311510409       10.6825940886       24.3714947122
  H        -5.7401696007        9.2102697652       24.8111868247
  C        -6.9844521762       10.8454408514       24.4878214144
  C        -2.3679254764       16.3265391323       35.0046815074
  S         4.9246610668        9.5599606650       11.0437701502
  C         4.5081481563        6.4308984034       11.4533241395
  H         6.9177386738        8.4673299805       31.0860167761
  H         5.5354106317        8.5423898839       32.1734576332
  C         5.4717878595        6.9898394537       30.6575485341
  H        -7.0130594837       10.9037873973       23.3704757333
  H        -7.0098755812       11.9274993378       24.6689963177
  C        -8.2605682839       10.1024244729       24.7380513406
  H        -2.1796176950       17.3724254349       34.9047305009
  C        -2.9119942232       16.0114356459       36.2089694592
  H         4.9861467369        6.9456371783       10.6290091904
  H         5.1349520278        5.5499229058       11.5824313950
  C         3.1121712972        6.1155869432       10.9829280612
  H         5.3923649039        6.8885645875       29.5543668406
  H         4.5206858627        6.6976665122       31.0976353550
  C         6.5200592542        5.9088476776       31.0610343093
  H        -9.0111277798       10.3304416946       23.9328710820
  H        -8.1867531590        9.0845186946       24.5590385988
  C        -8.9880335505       10.4796450953       26.0763219861
  S        -3.4779204126       14.4602027112       36.7223429547
  C        -3.1689173540       17.1582420725       37.1176598737
  H         2.5937065014        7.0541777759       10.8534748124
  H         3.2150717887        5.5851879972        9.9835881241
  H         2.4851706181        5.5135182803       11.5927386491
  H         6.7652530581        6.0151580002       32.0793669024
  H         7.4282842959        6.0832630327       30.4422756120
  H         5.9760028219        4.9285447608       30.9093621920
  H        -8.8645879189       11.4979059525       26.0800069740
  H        -8.5541724549       10.0700165121       26.9944664031
  H       -10.0345481547       10.2162403084       25.9509889975
  C        -3.9317867641       15.3547998275       38.1727497342
  N        -3.7923146491       16.7054837562       38.1536577974
  O        -2.8610733766       18.3322444556       36.8700654214
  S        -4.3339930925       14.5680969350       39.6948311128
  C        -3.9759425428       17.5708616026       39.3317005975
  H        -4.4928354868       18.5625883443       39.1011033187
  H        -4.7167784568       17.1139008040       39.8987564122
  C        -2.6056425778       17.7102922313       40.0693393911
  H        -2.2665971469       18.7051200351       40.2802830589
  H        -2.5428867080       17.1258134124       40.9116694943
  H        -1.8183041848       17.2886144304       39.4172203538
