352
i=
  H         4.8735817766        1.2290350651       12.4582794747
  C         4.1308302384        2.1016756264       12.4111830827
  H         4.7710433386        3.0014017578       12.5020697504
  C         3.1562924683        2.2729306155       11.1678396061
  C         3.3235804497        1.9599333958       13.6678418880
  C         3.9185111139        2.6896641840        9.9428554243
  H         2.3144730870        2.9289763694       11.2948307412
  H         2.8196356645        1.2487163668       11.1025296713
  H         2.7490294384        1.0509124318       13.7409968407
  H         2.5706654803        2.6656177727       14.0061265613
  H         4.0374319040        1.8170017425       14.4671917240
  C         4.8329818814        1.5836218818        9.4024557017
  H         3.2632817164        2.9998632551        9.1280638081
  H         4.4989891301        3.5574117567       10.1759390865
  C         5.4618026285        1.8175689040        8.0497903070
  H         4.2056081391        0.6559861792        9.4746563833
  H         5.6907985809        1.3867694790       10.0458591679
  C         6.7582990617        2.7031198696        8.2812755218
  H         4.7886037499        2.3427348424        7.4189538437
  H         5.6240825135        0.8778339495        7.6008527343
  C         8.0139093620        1.8874150220        8.7839903799
  H         6.9695854178        3.2359623829        7.4019429053
  H         6.5112289526        3.3484033913        9.1204044127
  C         9.2180772783        2.7964830529        9.0983981618
  H         8.2607676952        1.0968819789        8.0906901879
  H         7.8450955939        1.2921881606        9.6543509597
  C         8.8134407622        4.1736493600        9.7302405497
  C         9.7128562731        3.5042909974        7.8196536920
  C        10.3796400707        2.0358966451        9.8528161233
  C         9.0613049643        5.2415837798        8.8984576084
  C         8.2480488152        4.5639266406       10.9946875899
  C         9.5463532297        4.8724815918        7.6669986236
  C        10.3316256792        2.8572020942        6.7461351414
  H         9.9406997039        1.6012304205       10.6890966290
  H        10.8130305424        1.2562955602        9.1840440904
  C        11.6368397579        2.8987879388       10.1760293274
  S         8.4967583769        6.7214048328        9.6447529538
  C         8.0398273437        5.9248101768       11.0576310967
  H         8.0999118326        3.7878498577       11.7184425751
  C        10.0118716136        5.5041097706        6.5542737192
  H        10.3809310025        1.8110776817        6.8935527509
  C        10.6536585458        3.4948544331        5.5650146270
  H        11.4119687883        3.7544382513       10.8185903473
  H        11.9133871574        3.3292074326        9.1841352272
  C        12.6570587944        2.0917282193       10.9962086119
  C         7.6296258119        6.5813045386       12.3271900227
  C        10.5356206728        4.8595849593        5.4570142823
  H         9.9111049767        6.5953411064        6.4919865730
  C        11.0729068746        3.0872498361        4.3191914044
  H        13.6189039876        2.6142819517       11.0380234447
  H        12.8909567683        1.1599478201       10.4730247047
  C        12.2065578284        1.8837256719       12.4595921779
  C         7.6386848253        7.9582763653       12.6127981955
  C         7.1965726453        5.7066080544       13.4478516423
  C        10.9566665515        5.5430742441        4.1593717699
  C        11.1972194196        4.1827790562        3.4717065129
  S        11.3022757331        1.5691607535        3.5284381040
  H        11.5353800101        2.7433978609       12.7351694271
  H        11.5532801219        1.0310129390       12.5062948748
  C        13.3208588222        1.7317235042       13.4935287226
  N         7.8709446551        8.9689732949       11.6682011675
  C         7.4894823026        8.4464161500       13.9012764654
  C         7.1392354830        6.1937693022       14.7023166147
  H         7.0252823977        4.6452374179       13.2728522947
  C        12.2700611666        6.4436088173        4.3364214332
  C         9.8879933501        6.2995966972        3.3370078511
  C        11.6095891635        3.7294141637        2.2062855333
  C        11.6029618756        2.3871988496        2.0576096018
  H        13.6980784755        2.6998889752       13.6062626989
  H        14.1490018731        1.1377299558       13.1482802527
  C        12.9866367854        1.0452844330       14.8366643146
  S         7.6952411243       10.3702042878       12.4026525936
  N         7.6301250117        9.8228991187       13.9003286066
  C         7.3008458021        7.6559602325       15.0452450250
  H         6.8299521860        5.4773920882       15.4323654500
  H        12.0979326403        7.2429006504        5.0479175417
  H        12.6054405001        6.8233281708        3.3646034369
  C        13.5093904791        5.7503061960        4.7981847009
  H         9.4763036484        7.2154955095        3.8180950563
  H        10.4420723697        6.6449340793        2.4903105598
  C         8.6725547458        5.3811123396        2.9116460073
  H        11.8787076104        4.4260592281        1.4729606788
  C        11.7535886309        1.6446619057        0.7737614923
  H        12.0955616716        0.4188007012       14.5861973044
  H        13.8366564543        0.4703599058       15.1063077741
  C        12.7021943312        2.0924787663       15.8966152336
  C         7.0452981364        8.2861121131       16.3084050799
  H        13.2216538048        5.0704618502        5.6043670696
  H        13.8428238164        5.0192481083        4.1198653130
  C        14.7475499470        6.6683410819        5.1116411558
  H         8.2192286498        4.8753308947        3.7672034549
  H         9.0810655402        4.6882951672        2.1086023290
  C         7.5318889211        6.1559410833        2.2476802887
  C        11.8638477130        0.2245381027        0.6788486978
  C        11.8462022868        2.3792061107       -0.4973545090
  H        11.9992095883        2.8363174089       15.4691360315
  H        13.5645542544        2.7298014860       16.0912678688
  C        12.2367640144        1.4809430568       17.2461701969
  H         7.2193008617        9.3136123647       16.3248369870
  C         6.7918597625        7.8788276379       17.5882234970
  H        14.4368283931        7.2189959546        5.9422798145
  H        14.9524325871        7.4062258617        4.2727768333
  C        15.9208680317        5.8089216973        5.5960269429
  H         7.3920750650        6.8936691756        2.9483270405
  H         7.7632615617        6.7590092910        1.3520411320
  C         6.2562014435        5.3857181043        1.9416454628
  N        11.9134568591       -0.7588728382        1.7536473946
  C        12.2208353411       -0.4254155514       -0.4870527233
  C        12.1830458968        1.6764971112       -1.6499729909
  H        11.7084256138        3.4441167339       -0.4296476213
  H        11.2029778849        1.1985234896       17.1820062247
  H        12.4391885170        2.1133481664       18.0464022637
  H        12.7262836404        0.5776932360       17.4244133954
  S         6.4496554946        6.2480453229       18.1569737536
  C         6.7123848312        8.8772324468       18.6760255211
  H        15.4571602251        4.9822427095        6.1729065999
  H        16.4002875844        5.3766493526        4.6899968990
  C        16.9397894743        6.6354475873        6.5430799971
  H         5.8691104852        4.8315454071        2.8209543344
  H         6.4849326496        4.6226564321        1.2291046401
  C         5.2045727498        6.2346491511        1.2712036850
  S        12.1228322183       -2.2515998382        1.0512718015
  N        12.3588124508       -1.7890657840       -0.4247995289
  C        12.4334334222        0.2729802220       -1.7010616714
  H        12.2351619126        2.3070027123       -2.5202064437
  C         6.1782678238        6.9701047258       19.7329557655
  N         6.4135771024        8.2875991806       19.8348315488
  O         6.8480147774       10.0894308040       18.5303761016
  H        17.5034446305        7.3133703693        5.8644203955
  H        16.3291934715        7.2273139545        7.2631935280
  C        17.8904280932        5.7405570690        7.3585454675
  H         5.4772052060        6.7948988629        0.4196660315
  H         4.4502427003        5.5775937255        0.8536105037
  C         4.5275213212        7.1390099610        2.3078118458
  C        12.7759122007       -0.4959112851       -2.8585163213
  S         5.7233390921        6.2106620699       21.3079469354
  C         6.2278495786        9.1781028898       21.0740845169
  H        17.5863499206        5.8311486412        8.3983903341
  H        17.7873646811        4.6586578141        7.1769009916
  C        19.3797892784        6.2116218672        7.3991121822
  H         5.1511259383        7.3137000974        3.2159944755
  H         3.6356331469        6.6200477146        2.6613516119
  C         4.0919262304        8.3572205123        1.4975389413
  H        12.8055678625       -1.6383396630       -2.7833200788
  C        13.3264375945       -0.1662443881       -4.0976653025
  H         5.5069802300        8.7255299303       21.7071135520
  H         5.8364763731       10.1628082507       20.7963324409
  C         7.5856714676        9.3276258448       21.7213248671
  H        19.8748275257        5.6315657321        8.1926450072
  H        19.2951470173        7.2350297667        7.7816557597
  C        20.0249310085        5.9778409061        5.9777449737
  H         4.9873117038        8.8212898692        1.0871019790
  H         3.5144167369        8.0994593940        0.5775301740
  C         3.2736958961        9.3370234311        2.3993391933
  S        13.7138056706        1.4206312919       -4.5367503862
  C        13.5935348723       -1.2686716676       -5.0953943466
  H         8.3983997032        9.6461108243       21.0387159948
  H         7.8913461896        8.3442986476       22.1774234553
  H         7.6060978501       10.0364429774       22.4931692296
  H        19.9255065911        5.0119305850        5.7028363214
  H        19.6282035286        6.5198834781        5.1701987065
  H        21.0210113487        6.3587562632        5.9784686904
  H         3.2129083281       10.3878640449        2.0651664463
  H         2.1681298505        9.0509915228        2.4092902665
  H         3.6520318108        9.3224477147        3.3828113365
  C        14.3471964461        0.6453470724       -5.9590056759
  N        14.3053552075       -0.7120717865       -6.1109909537
  O        13.4083173886       -2.4624205480       -4.9428074542
  S        15.0586768799        1.6420899506       -7.1978433146
  C        14.6053590999       -1.4170964432       -7.3704425092
  H        14.8569907626       -2.4405765396       -7.1032718394
  H        15.5007982556       -1.1154517331       -7.7634456762
  C        13.4371588679       -1.4878865893       -8.3710535952
  H        13.4122873833       -0.5290676008       -8.9479692667
  H        12.4846840324       -1.6033325602       -7.7800938004
  H        13.4864754019       -2.3144653763       -9.0683148421
  H        -3.2967739269       15.0983269791       16.5886908346
  C        -3.2301811050       13.9867972925       16.6744398719
  H        -4.1857370367       13.5917270592       16.9978514932
  C        -2.2142213411       13.5720156595       17.7146125412
  C        -2.9325157619       13.4416377867       15.2963130505
  C        -2.5829566259       14.0309332738       19.1359793831
  H        -1.9414768959       12.5517169669       17.7793325914
  H        -1.2739862528       14.0519879316       17.4500636703
  H        -2.8649884667       12.3343763248       15.2668303736
  H        -3.5197713165       13.8412496708       14.5251477453
  H        -1.9101429062       13.7981561979       15.0742973276
  C        -2.1439569851       13.1035167767       20.1716519434
  H        -3.5932360316       14.3530638163       19.1660631070
  H        -2.0094347285       14.8992000459       19.5526941357
  C        -2.3858395493       13.4759264504       21.5807817188
  H        -2.5713556567       12.1161058978       20.0187591245
  H        -1.0516980792       13.1936279969       20.0322039546
  C        -1.2477628983       12.8013503967       22.3631518178
  H        -3.3653060446       13.1276216497       21.8817784103
  H        -2.4258094932       14.5873510522       21.7255995198
  C        -0.0227731607       13.7221953644       22.6421566356
  H        -1.6294211641       12.3456163966       23.2984989120
  H        -0.8044378550       11.9917814276       21.9227876779
  C         1.1386008451       13.0353342730       23.4119096448
  H         0.4866702201       14.0191416198       21.7495698131
  H        -0.2809009286       14.7113637508       23.0975235663
  C         1.4661777513       11.6691526689       22.7561483996
  C         0.7463614057       12.3903900715       24.6956927871
  C         2.3567831410       14.0498994344       23.5522086556
  C         1.3163161823       10.6101318255       23.6178555504
  C         1.8790899650       11.1755781826       21.4711461693
  C         0.8357343858       11.0396998111       24.8566136322
  C         0.3428442965       13.0090373395       25.9008183616
  H         2.5032591586       14.5397871110       22.5741535808
  H         2.1393223461       14.8758005509       24.3023186335
  C         3.7051506617       13.3084043532       23.9297892150
  S         1.6188160386        9.0732267371       22.9347232952
  C         1.9830508818        9.8066582502       21.4378654170
  H         2.1635984742       11.8535723085       20.7870341598
  C         0.5148098742       10.4045943549       26.0203576546
  H         0.2964850081       14.1225429235       25.8594575029
  C        -0.0000779604       12.3628346875       27.0247642747
  H         3.9087726674       12.5903146181       23.2107015012
  H         3.5954367685       12.6070246147       24.7653665176
  C         4.9576482792       14.2388886462       24.1580299840
  C         2.5808748952        9.0706915750       20.2723002900
  C         0.1000335212       10.9970144420       27.2354589385
  H         0.5167283144        9.3597265525       26.0967443197
  C        -0.4731445020       12.8651611020       28.2067482433
  H         5.7140642891       13.6390676518       24.5978569242
  H         4.7280577582       15.0639964024       24.8317015290
  C         5.6148181589       14.8531564708       22.8635610390
  C         2.5509711017        7.6991604335       20.0710248873
  C         3.0667611378        9.8957217120       19.0942096017
  C        -0.3447606985       10.3734551186       28.5637520458
  C        -0.7126439778       11.8216855522       29.1190148537
  S        -0.6830494635       14.4059539723       28.8127537670
  H         5.9705425270       15.8742742904       23.1440873398
  H         4.8557179356       14.9953977748       22.0646769451
  C         6.6626390335       13.8812972976       22.2330833966
  N         2.3405597809        6.8197827912       21.1360028086
  C         2.8588451493        7.0790845982       18.8840261816
  C         3.4871810156        9.2224540105       17.8913969506
  H         3.2138173630       10.9876304896       19.2339123439
  C         0.6705044720        9.6423323271       29.3604617763
  C        -1.6532662288        9.5629095510       28.3739365566
  C        -1.0394000608       12.3018965454       30.3574894355
  C        -1.0936521908       13.6738858702       30.3510877614
  H         7.3630090855       14.4702654282       21.6616770091
  H         7.2853268456       13.3695158974       23.0302026591
  C         6.2160646193       12.7103497669       21.2843482736
  S         2.4371354312        5.2932562153       20.4882842223
  N         2.8342505324        5.6871929425       18.9119954578
  C         3.2637133648        7.7927301844       17.7161063785
  H         3.7565463248        9.9186555787       17.0722578856
  H         0.8992966590        8.7054590464       28.8672094770
  H         0.1425656171        9.1500873691       30.1708666972
  C         1.9562135220       10.3291322652       29.8055092018
  H        -1.4482112606        8.8054026917       27.6282558576
  H        -1.8934407690        9.0747154424       29.3679498859
  C        -2.8794968798       10.3259757231       27.9433432088
  H        -1.3062148968       11.5746140183       31.1125408128
  C        -1.4864227929       14.5016124140       31.5833032222
  H         5.5242420674       12.0514338809       21.7941207811
  H         7.0998517018       12.0580571266       21.2752784991
  C         5.6795560842       13.0937741434       19.8688897452
  C         3.4950989300        7.1051160195       16.5184441018
  H         2.2248522517       11.0998110581       29.0582586507
  H         1.9096712947       10.7498233296       30.7861452924
  C         3.1955651598        9.4179967917       30.0580735495
  H        -2.6177878078       10.9228804839       27.0433836728
  H        -3.1184124415       11.0656253190       28.6902035466
  C        -4.1387682367        9.5426354709       27.4615428073
  C        -1.5580371110       15.8917156526       31.7603639067
  C        -1.8109730996       13.8055383172       32.8944751353
  H         5.1065728091       12.2335770846       19.4777784311
  H         4.8426982962       13.7906805533       19.9966839973
  C         6.7014945253       13.5722263178       18.8046975432
  H         3.0230454176        6.1794853030       16.4732452455
  C         3.7960037030        7.4112833764       15.2330371911
  H         3.3312366931        8.7527605661       29.1300185157
  H         2.9137356196        8.7960484290       30.9372294197
  C         4.3709182632       10.2105097081       30.4531549216
  H        -3.8911975341        8.8432424101       26.6479781506
  H        -4.4290278106        8.8152458997       28.2568734120
  C        -5.2680913643       10.5316325636       26.9571730626
  N        -1.3241639706       16.8003066616       30.7126837857
  C        -1.8819124169       16.5606941637       32.9185389564
  C        -2.1977594886       14.4790272789       34.1093537886
  H        -1.8544058695       12.7058522284       32.8133848784
  H         7.2782417539       12.7777096218       18.3293835416
  H         6.1487747109       14.0656248942       18.0224905512
  H         7.4706060342       14.2154251904       19.1948418725
  S         4.0379523624        8.9935052876       14.6346746870
  C         3.7113370471        6.3741050148       14.1866747999
  H         4.5389037868       11.1810721149       29.8860360582
  H         4.2872120572       10.4835583466       31.5111198235
  C         5.6787534154        9.3514661649       30.3394359892
  H        -4.8585192641       11.4531061117       26.6494117327
  H        -5.7989962187       10.8929461125       27.8279803760
  C        -6.1959439087        9.7671341846       26.0439927213
  S        -1.2708976185       18.3241282033       31.2920947326
  N        -1.8653287266       17.9225807659       32.7681588049
  C        -2.2140160749       15.9212372440       34.1539268081
  H        -2.4627819716       13.9627773886       34.9557496074
  C         3.9470418662        8.3053517200       13.0407160367
  N         3.9428204667        6.9322244986       12.9930666636
  O         3.6698952058        5.1959845986       14.4428563749
  H         6.5363901476       10.0191340394       30.1973634424
  H         5.4709483818        8.7169398777       29.4024666298
  C         5.9099018573        8.4119691684       31.4604238879
  H        -5.6223649401        9.2074355804       25.2945086179
  H        -6.8306172465        9.1457522234       26.5461196099
  C        -7.2129433982       10.7126395168       25.3393116639
  C        -2.4947889918       16.6965229830       35.3493693301
  S         4.1277594887        9.2192793806       11.6028944590
  C         3.8849232875        6.1023205842       11.7834476697
  H         6.8916009745        8.3802164836       31.9562584475
  H         5.2492897199        8.6860845802       32.3168184834
  C         5.5619073238        6.9824875085       31.1297685455
  H        -6.7203979586       11.3799029336       24.5857636794
  H        -7.5186907416       11.4808270561       26.0680597369
  C        -8.4862694737       10.0487308219       24.8068592668
  H        -2.1421471114       17.7453271652       35.3208115242
  C        -2.9910110658       16.3503620667       36.5965974620
  H         4.6697515028        6.3513130348       11.1090473830
  H         4.1780061280        5.0976713376       12.0065864553
  C         2.4713531809        6.1782211670       11.1061352660
  H         4.5519656174        7.0206416671       30.6923399682
  H         5.5866259715        6.4876592040       32.0548708074
  C         6.5878154154        6.2414341211       30.2391999416
  H        -8.9332380105       10.6136953126       23.9709680428
  H        -8.2743952490        9.0266560302       24.4381207739
  C        -9.6195424008       10.1047101348       25.7241589358
  S        -3.4646347118       14.8239178893       37.1601485976
  C        -3.0598788356       17.4427676464       37.6153386367
  H         2.2389372468        5.4533031289       10.3060100476
  H         1.7447629437        6.0704676902       11.9099281719
  H         2.3287370604        7.1930904441       10.6113271157
  H         7.6125647047        6.4451041381       30.6216278418
  H         6.5775150926        6.4835373181       29.2129038017
  H         6.5975864846        5.1535154778       30.4026349717
  H        -9.3827705565        9.6261523280       26.6682032421
  H       -10.4231584961        9.4865446523       25.3225306727
  H        -9.9269476209       11.1177142950       25.8783775344
  C        -3.8022263289       15.6291561318       38.7368847683
  N        -3.5557606297       16.9735636417       38.7661679603
  O        -2.7497116007       18.6351597157       37.3906097409
  S        -4.0959769254       14.8036097303       40.2289313719
  C        -3.5747269307       17.7299774281       40.0057514885
  H        -3.7276862039       18.7869710837       39.7126380178
  H        -4.3946460352       17.4434778457       40.6252318898
  C        -2.1149058920       17.6664504688       40.6425443061
  H        -2.1248990632       17.0458659563       41.5239490436
  H        -1.4526465541       17.3025553056       39.8113598917
  H        -1.8494448269       18.6683190664       40.9806891459
