352
i=
  H         2.3195806716        3.2118416995       12.0017830692
  C         2.8575373865        2.2992522418       12.2431154155
  H         2.1914101090        1.5691694579       11.8232253687
  C         4.2365916908        2.2483340957       11.5899602455
  C         2.9748096796        2.1302315315       13.8283042978
  C         3.9674449925        1.9351920350       10.1426216384
  H         4.7438834983        1.5020524755       12.0809762139
  H         4.8117286113        3.1743517005       11.7881027252
  H         3.9414468321        2.3951677021       14.1630409076
  H         2.8874871837        1.0948984410       14.0460847483
  H         2.2500580518        2.5811471385       14.4764489544
  C         5.0121176755        1.0487107579        9.3937924462
  H         2.9969214912        1.5695193742        9.9209425260
  H         4.0523945639        2.9088465066        9.6803325515
  C         5.6320671334        1.7556964971        8.1487221861
  H         4.6760901818        0.1669076657        8.9034378388
  H         5.7713949037        0.7728116385       10.1273805687
  C         6.8300532820        2.6473320189        8.5579578356
  H         4.9477281195        2.3241269712        7.6182901903
  H         5.9925827402        1.0928540610        7.3637631282
  C         8.1013136318        1.9030591590        8.9131958873
  H         6.9070409570        3.4705993246        7.8642851562
  H         6.6494512803        3.2730849410        9.4563944645
  C         9.3652936989        2.8279126387        9.1395411951
  H         8.3220200493        1.2546804333        8.1285142176
  H         7.8657116377        1.1704619116        9.6691414094
  C         8.9843023518        4.1454195769        9.8051481259
  C         9.7078944493        3.5784258541        7.8766401900
  C        10.4783821757        2.0927398016        9.8304727846
  C         9.0304683996        5.2820163537        9.0014418906
  C         8.4794405813        4.4778607119       11.0630724835
  C         9.5147477423        4.9497833473        7.7743535615
  C        10.2336960556        3.0022758539        6.7477036782
  H        10.1000550165        1.6846093376       10.7694003251
  H        10.7680979069        1.2867131981        9.1340239395
  C        11.7614969904        2.9354148088       10.1859493316
  S         8.5680208276        6.7353090215        9.7652841940
  C         8.3170584524        5.8027235815       11.1813164978
  H         8.4163281667        3.7069840499       11.8427815426
  C         9.8168936961        5.6335322054        6.6046345774
  H        10.3486257344        1.9440605789        6.9422339579
  C        10.5438638534        3.6776184726        5.5849796750
  H        11.5757258443        3.9681060997       10.4375299563
  H        12.1848216360        2.9979948156        9.2179661649
  C        12.6838286277        2.2850531457       11.1924077481
  C         7.9330075298        6.4063585804       12.4847252019
  C        10.3860567630        5.0323059721        5.4655070519
  H         9.8368494836        6.7686437997        6.5323587031
  C        11.0278791417        3.2970083582        4.3461651643
  H        13.5358216963        2.9869306817       11.3347393838
  H        13.1571281567        1.4184160230       10.7682008298
  C        11.9853574728        2.1402238943       12.5379341131
  C         7.9466744773        7.8042060915       12.7564530542
  C         7.5457150436        5.5680496752       13.6698036124
  C        10.7947353784        5.7233654474        4.2016557285
  C        11.0242237176        4.3391004237        3.4749021460
  S        11.2703731874        1.8005897982        3.6933142386
  H        11.1014346910        2.7994501774       12.7051635161
  H        11.7358462748        1.1183475158       12.4762479310
  C        12.9054514850        2.2744576496       13.6415202974
  N         8.3284084353        8.7343985628       11.8027659711
  C         7.6520693055        8.3604220735       13.9863303669
  C         7.1786018930        6.1404873205       14.8404067382
  H         7.4893955964        4.4875852859       13.5217113847
  C        12.0546836565        6.6419671680        4.3426088523
  C         9.7052613449        6.5789936903        3.5432131765
  C        11.3107629137        3.9266208351        2.1675255736
  C        11.5071282160        2.5944146644        2.1630075337
  H        13.3462259356        3.3006598390       13.6769431278
  H        13.8169250315        1.6705063772       13.3125403871
  C        12.3243604351        2.0672635480       15.0743324424
  S         8.3425451310       10.2060675701       12.4424296513
  N         7.9047251287        9.7628090744       14.0159727789
  C         7.2291008890        7.6130251552       15.0693570231
  H         7.0213769610        5.4545563147       15.6328295357
  H        11.8858908743        7.3985597061        5.1220693243
  H        12.2686664157        7.1830349527        3.4164512918
  C        13.2330797356        5.7793307748        4.8345285847
  H         9.3604644032        7.2873324726        4.2709358602
  H        10.1081755013        7.1493887752        2.7376405758
  C         8.5681354167        5.6018018550        3.0541674764
  H        11.3304699513        4.6416208675        1.3403367879
  C        11.8472136354        1.8294407323        0.8953402790
  H        11.5495386819        2.8290280616       15.2875352259
  H        11.7056202454        1.1745417270       15.1834482827
  C        13.3574143585        2.2158898406       16.1603237502
  C         6.9342537168        8.3105913273       16.2839523040
  H        13.0799178138        5.2879243111        5.7404461629
  H        13.4035212477        4.9941671687        4.0924460267
  C        14.4871514889        6.6656583341        4.9474291668
  H         8.2933997932        4.8766376022        3.8026190883
  H         8.7712784691        5.0847096382        2.1124608145
  C         7.3458135831        6.3874536410        2.8677053755
  C        11.9128937066        0.4252409046        0.7511806848
  C        12.0444902898        2.6110202934       -0.3382403567
  H        14.1038853896        2.7857505061       15.6362086511
  H        13.8703229401        1.3384821452       16.3988261788
  C        12.9540923274        2.9957880061       17.3427534016
  H         7.1254961988        9.3124280812       16.1845080659
  C         6.5722762048        7.8660193813       17.5024865614
  H        14.4331453436        7.3802079697        5.7295424272
  H        14.6261377060        7.1309282272        4.0082795797
  C        15.7525377143        5.8258496038        5.1092950198
  H         6.9677965685        6.7195441027        3.8285582693
  H         7.5605164241        7.1775930645        2.1932047859
  C         6.0940013603        5.6804982608        2.2530411281
  N        11.6164966327       -0.5017821674        1.7891994000
  C        12.1437398709       -0.2268479997       -0.4254114650
  C        12.3892085525        1.9807207847       -1.5641544676
  H        12.1565572516        3.7011713625       -0.2527358805
  H        13.7657161865        3.4703230082       17.8662000175
  H        12.5070550642        2.3906778664       18.1526287975
  H        12.4265212178        3.9167806182       17.1531068977
  S         6.1836300196        6.2540946314       17.9265767978
  C         6.4447506922        8.8907995650       18.6184862087
  H        15.7990231520        5.0206046200        4.4510197127
  H        16.5256324743        6.5581356924        4.9271942388
  C        16.0070699589        5.3822428197        6.5044698356
  H         6.0338761921        4.7868672224        2.8295044427
  H         6.2770248054        5.3601321550        1.1907965996
  C         4.7795330881        6.5593790003        2.2577293655
  S        11.6582889955       -2.0499523915        1.1767661939
  N        12.1780471497       -1.6460955410       -0.3359997645
  C        12.3359006906        0.4683280651       -1.6683780147
  H        12.5008334095        2.5719511898       -2.4536178288
  C         5.9747726004        6.9094563482       19.5272925397
  N         5.9970109306        8.2711163377       19.7184406212
  O         6.6046657540       10.1441129825       18.3632728771
  H        15.8067812934        6.1755759235        7.2429506886
  H        15.2363454967        4.6373010816        6.7686037629
  C        17.3298160052        4.6465585246        6.7022015978
  H         3.8873306287        5.9575310804        2.3520698104
  H         4.7117055207        7.2926108599        3.1114366553
  C         4.5315524142        7.2064100580        0.9623661009
  C        12.5833634737       -0.2630992331       -2.9089694652
  S         5.4500776836        5.8659801402       20.8424695311
  C         5.6589764661        8.9404535330       21.0216288258
  H        17.2838833010        4.0473553099        7.5913586268
  H        17.4401079789        3.8444916572        5.9569456808
  C        18.5831249757        5.6041073724        6.8985948370
  H         4.1112561485        6.5434153423        0.1791006761
  H         5.4865022011        7.5900583710        0.6097245636
  C         3.6276600238        8.4775627790        1.1731293540
  H        12.2396195130       -1.2300993545       -2.9138711233
  C        13.0936717609        0.0023371339       -4.1309496024
  H         4.8300297103        8.4162458868       21.4200016901
  H         5.3106744561        9.9679227721       20.7898717707
  C         6.8492671798        8.9449914994       21.9098726340
  H        18.9996003262        5.3411111341        7.8621933326
  H        18.2964804433        6.6844790939        6.9938153131
  C        19.6124277051        5.4558057981        5.7856461596
  H         2.9804075380        8.5877293797        0.3122260246
  H         2.8770500873        8.4241341655        2.0387702955
  C         4.3111891176        9.7410437455        1.5765181167
  S        13.6657893736        1.5458604208       -4.6817075752
  C        13.3182135802       -1.1353838875       -5.0870785902
  H         6.5391611929        8.4807438904       22.8393961097
  H         7.0487374063        9.9601460867       22.1644887811
  H         7.7998404756        8.4835639042       21.5444240244
  H        19.1281470842        5.7018867768        4.8994914315
  H        20.5687552785        5.9459975034        5.9395944091
  H        19.7361091474        4.3496968718        5.7616832148
  H         5.0646547964       10.1043014951        0.9884479200
  H         3.5681822846       10.5966201414        1.6826473758
  H         4.7207636462        9.5657445247        2.5713738670
  C        14.2879540536        0.6389920514       -6.0648175006
  N        13.9973820354       -0.6468564042       -6.1460394154
  O        12.8724798792       -2.3192805580       -4.9853410711
  S        14.9198039718        1.5251763131       -7.4614648477
  C        14.0392540616       -1.4391929058       -7.2970079872
  H        14.2917608537       -2.4893476520       -7.0284038876
  H        14.8552710811       -1.1969631370       -7.8990020814
  C        12.8138833988       -1.2953950272       -8.1862321540
  H        12.0723739309       -1.7930270056       -7.6034905727
  H        13.0157050013       -1.8246152792       -9.1699718301
  H        12.4738962467       -0.2433700322       -8.4170854165
  H        -3.2153499090       15.0935515263       15.5205059256
  C        -3.4176404042       14.1011999196       16.0449314954
  H        -4.4573099804       14.0517247085       16.4583727669
  C        -2.4119317963       14.0337328042       17.1088331148
  C        -3.1304846309       13.0411112102       14.9474848390
  C        -2.9452221218       13.3944795522       18.4276348215
  H        -1.5618369749       13.5117986391       16.6289363035
  H        -1.9717518781       14.9888945244       17.2439413420
  H        -2.6572758136       13.6335893175       14.1761795232
  H        -2.4552612092       12.1829888185       15.1776525705
  H        -4.0791301789       12.7320913232       14.5113919616
  C        -1.9477552421       13.2677357304       19.6054152010
  H        -3.3718735089       12.4057793798       18.1447246014
  H        -3.7327964137       13.8517390675       18.8576889651
  C        -2.6529447956       12.9564550620       21.0167972569
  H        -1.1881146224       12.4790847916       19.3511759676
  H        -1.5053804424       14.1911352647       19.6443720706
  C        -1.5810031578       12.5345570607       21.9537767079
  H        -3.6461465675       12.4559342900       21.0627353283
  H        -2.9376103033       13.9656136721       21.4200727783
  C        -0.3776058976       13.4936521423       21.9816017517
  H        -2.0325685558       12.4099985205       22.8900525714
  H        -1.1958144139       11.6110710711       21.5997104076
  C         0.9156700883       12.9027762963       22.6673865871
  H         0.0398587072       14.0119317764       21.0997326532
  H        -0.7397680664       14.2763491885       22.7035349874
  C         1.2503688914       11.4797319089       21.9846988967
  C         0.6467370670       12.2023716246       23.9756691301
  C         2.2015494818       13.7928327672       22.4553798014
  C         1.1559021944       10.4972360862       22.9015514222
  C         1.6803708807       11.0675828173       20.7390704414
  C         0.7132061408       10.8926416024       24.1021373560
  C         0.1833790254       12.8993247234       25.0762092304
  H         2.4437313836       13.7043065773       21.4355185975
  H         1.9782557390       14.8748600220       22.6327258659
  C         3.4096129600       13.2107606156       23.1934239618
  S         1.4807681793        8.9533872691       22.2057348196
  C         1.8492901543        9.7018452254       20.6972938347
  H         1.8344864398       11.7605808777       19.9971738669
  C         0.4090094577       10.3122137281       25.2965718941
  H         0.0067242260       13.9915615460       25.0074447907
  C        -0.0633042962       12.2784080001       26.2691027912
  H         3.6113280842       12.3363508790       22.6136620717
  H         3.1284502230       12.9872763846       24.2375823682
  C         4.6207602368       14.1680198651       23.2946575845
  C         2.4006134931        9.0108053233       19.5117715337
  C        -0.0048356063       10.9310185159       26.4429478427
  H         0.4196158525        9.2264431401       25.4098716744
  C        -0.4418561749       12.6714377004       27.5904460672
  H         5.3778282580       13.7256752561       23.8686752626
  H         4.2274793744       15.0236814586       23.7215098174
  C         5.1866001122       14.4463478592       21.9239399124
  C         2.3847312584        7.6041017725       19.2993636552
  C         2.8566155808        9.8146648022       18.3936057094
  C        -0.3455396147       10.2437190864       27.7559470709
  C        -0.6242553414       11.6277098221       28.4490023899
  S        -0.7173820945       14.2401633935       28.3366224926
  H         5.9683785554       15.2382513993       22.0602830273
  H         4.4005029513       14.9194306947       21.3529597880
  C         5.7882850821       13.1892344386       21.2478418516
  N         2.0919044959        6.6379706006       20.2893461158
  C         2.8363109550        7.0646466907       18.0962849244
  C         3.4000657302        9.2399549233       17.2879322517
  H         2.8936599764       10.8805365662       18.5238867249
  C         0.8412964060        9.3650655633       28.2553545830
  C        -1.6143140235        9.3664235579       27.7218833721
  C        -0.9439079679       12.0352175463       29.7371939675
  C        -1.0510512047       13.3948524402       29.8302288815
  H         6.6966072495       12.9469041571       21.7595763386
  H         5.1562120492       12.2528564565       21.3856178446
  C         6.0777430654       13.3031646388       19.7332444005
  S         2.2476611953        5.1605725082       19.6562666029
  N         2.8561358841        5.7066726777       18.1818917114
  C         3.2376857760        7.8352654514       17.0035037881
  H         3.8795282726        9.8379428018       16.5155793350
  H         1.0654955010        8.6417721577       27.4741601878
  H         0.6613280381        8.8480565343       29.2319058231
  C         2.0919202736       10.2492115640       28.5372141875
  H        -1.3410884609        8.6849921840       26.8623861559
  H        -1.6818325653        8.8093925918       28.5911669834
  C        -2.9314962578       10.0563274742       27.3562977166
  H        -0.9621195971       11.2730210314       30.5318854865
  C        -1.3345988049       14.1959952487       31.1083418356
  H         5.7937087849       14.2790841254       19.3682923220
  H         5.3949383307       12.6407238604       19.1727863537
  C         7.4634800361       13.1441587795       19.3804722838
  C         3.7141087616        7.1700297666       15.8607456099
  H         2.3692429458       10.7752341726       27.6198132856
  H         1.8594540933       10.9990543775       29.2753537801
  C         3.2617018273        9.4724347660       29.1105339432
  H        -2.9545041428       10.5914876023       26.4077135112
  H        -3.1679017914       10.9364806700       28.0750895288
  C        -4.1106509924        9.0181552382       27.2807524726
  C        -1.3753731169       15.5988709336       31.3319027695
  C        -1.6892955046       13.3774306427       32.2586003684
  H         8.1013221012       13.8645613728       19.9011173347
  H         7.8212671904       12.1008052827       19.5814527168
  C         7.6854637578       13.2903074910       17.9037064959
  H         3.7799098919        6.1387358411       15.9041848103
  C         3.9621277214        7.6339720851       14.6081933148
  H         3.6946556723        8.9347217694       28.2459137447
  H         2.9753343471        8.6717537618       29.8116828169
  C         4.3490395651       10.3365333195       29.7892686260
  H        -3.8461213159        8.2081327455       26.5645206313
  H        -4.2548701370        8.5102780954       28.2624644618
  C        -5.4432516970        9.7710688830       26.9361792385
  N        -1.1490327848       16.5670981522       30.3739841833
  C        -1.5925864545       16.1650254528       32.5438523647
  C        -1.9794517644       13.9123348259       33.4950008149
  H        -1.7619002143       12.2387648240       32.1610944826
  H         7.6841109104       14.3230133771       17.5771463280
  H         8.6644526343       12.9603253519       17.5682754228
  H         6.8513927570       12.8012909296       17.3375933398
  S         4.1763160347        9.2662435274       14.1086936118
  C         4.2027094403        6.6755787249       13.5459898334
  H         4.5106509984       11.2548982584       29.1666727673
  H         3.9728995364       10.6514223671       30.7958592374
  C         5.5975504281        9.4873009053       29.9756766118
  H        -5.2949722251       10.8053663576       27.3701363455
  H        -6.3247447607        9.2249678763       27.3070930607
  C        -5.5937188269        9.9918268464       25.3795249986
  S        -1.0688170753       18.0590075383       31.0398356846
  N        -1.4309958327       17.5533377269       32.5237361239
  C        -2.0029294622       15.4081783853       33.7038930118
  H        -2.3534072161       13.3276567869       34.2603518211
  C         4.5981054857        8.6630495533       12.5396283037
  N         4.5609418957        7.3123657251       12.4202999824
  O         4.1105328786        5.4546871069       13.7304164373
  H         6.3359759935       10.0872128832       30.4115038689
  H         5.9134059463        9.2859109945       29.0180547396
  C         5.3297739845        8.1840833766       30.7864841878
  H        -4.6280057756       10.2069252204       24.9052754295
  H        -5.8743774358        8.9931364508       24.9856063450
  C        -6.6945083531       10.9656751075       25.0647061832
  C        -2.3026602210       16.1141360110       34.9065663427
  S         5.2802652209        9.6674376327       11.2655446644
  C         4.5702123326        6.6246842746       11.1160061611
  H         4.7765079827        8.6203270379       31.6502108158
  H         4.8055379429        7.4411127271       30.2021294009
  C         6.5485735695        7.5818962349       31.5081479228
  H        -6.3837582780       11.5409946986       24.1572868005
  H        -6.6829250526       11.8274996420       25.7854356360
  C        -8.1140684904       10.3105520987       24.8293464934
  H        -2.1891371561       17.1642389973       34.8344641540
  C        -2.9246618295       15.7707844858       36.1175239670
  H         5.3952252114        7.1284809558       10.5088812310
  H         4.8583099410        5.5973158222       11.2192791942
  C         3.2580596351        6.6796812511       10.3390567319
  H         6.7003386520        8.3177542013       32.2938513973
  H         7.4879106714        7.6801313161       30.9347403649
  C         6.3368511336        6.1416197632       31.9710843964
  H        -8.6219272486       10.5178491355       23.8910473218
  H        -8.1631677230        9.2487464088       24.9491825633
  C        -9.0888841786       10.6464820936       25.8896447728
  S        -3.3782168770       14.2189985325       36.6156057817
  C        -3.0665560162       16.8691247742       37.1442610841
  H         3.1792129220        7.5879081806        9.8625088509
  H         3.2102652090        5.8378734180        9.5654566009
  H         2.4598885450        6.5227493230       11.1193692524
  H         6.5677682260        6.1299122585       33.0092860072
  H         7.0489906451        5.5680411431       31.4462679547
  H         5.3529949299        5.7805665998       31.9471279811
  H        -9.3195288853       11.6906693238       25.7638870403
  H        -8.5381903696       10.5006761916       26.8118487537
  H        -9.9334994165        9.9449789944       25.8084802616
  C        -3.6975463033       14.9122790373       38.1324446111
  N        -3.6831212347       16.3031041532       38.1575789639
  O        -2.8885122041       18.0615850255       36.9152524722
  S        -4.4715791619       13.8829675903       39.4046580863
  C        -3.9075077184       17.0192801203       39.3517112992
  H        -4.2679168385       18.0289231079       39.2045763658
  H        -4.5414304445       16.4510761494       40.0341809630
  C        -2.5508407792       17.0918191206       40.0572991539
  H        -2.2608962735       18.1363398608       40.0253917713
  H        -2.6397507391       16.7373517993       41.0546612991
  H        -1.7889514103       16.4055649863       39.5637099883
