352
i=
  H         2.5103728894        1.1434723920       13.6009935602
  C         3.3266321835        1.5807767065       13.1010423815
  H         3.9778755040        0.7288132712       12.8028413508
  C         2.7949950665        2.3397087492       11.8328744326
  C         3.9647949461        2.5556464438       14.1391721309
  C         3.7745772674        2.7417072316       10.8087725683
  H         2.2419718071        3.2190194600       12.1274814189
  H         2.0299138383        1.7464774413       11.4233661126
  H         3.2197155677        3.1087204792       14.6950673144
  H         4.6952706906        3.1138646591       13.7178869576
  H         4.5185431207        1.9106366562       14.8437811659
  C         4.5951787687        1.5443565655       10.2673410147
  H         3.2344723782        3.0096834102        9.8643714035
  H         4.3788999061        3.5559647895       11.2389502561
  C         5.1358883203        1.7096807757        8.8481657385
  H         4.0921002604        0.6093851089       10.4762085533
  H         5.4779301320        1.4282989635       10.8259952645
  C         6.4519359859        2.5917173394        8.7979793036
  H         4.3836883643        2.2979528019        8.2968916478
  H         5.1934899672        0.7459035391        8.4163159275
  C         7.7568533495        1.7989806573        9.1203731713
  H         6.4533211063        3.0331500505        7.7561426078
  H         6.3307000051        3.3377304759        9.5971728090
  C         9.0217866216        2.6728088109        9.2696078884
  H         8.0121840917        1.1545349587        8.2520890850
  H         7.5996205236        1.2628797100       10.0722941629
  C         8.6926818160        3.9903388952        9.9966596707
  C         9.4576274979        3.3779015673        8.0319800905
  C        10.2080700063        1.9228558769        9.9509001820
  C         8.8292386617        5.0972529209        9.1934341463
  C         8.3710228636        4.3902613105       11.3021316849
  C         9.3633849024        4.7285056284        7.9125145816
  C         9.8801936579        2.7510458046        6.8009530848
  H        10.0024985958        1.6799011836       10.9673725439
  H        10.5891781997        1.0509031486        9.4537390624
  C        11.5583415748        2.6652867954       10.2449700738
  S         8.5193744527        6.6455658908        9.9596317437
  C         8.1785038335        5.7414300710       11.3929486369
  H         8.2586519489        3.6413776183       12.0760505295
  C         9.7880068251        5.3921731385        6.7571422408
  H         9.9325761811        1.6920308701        6.8165199817
  C        10.3930690431        3.3838193166        5.7363404160
  H        11.2152986128        3.6595725834       10.6336909310
  H        12.0725223682        2.7727570670        9.3139293683
  C        12.4871399674        1.8530272683       11.1549483729
  C         7.8200490137        6.3324814035       12.7594402413
  C        10.3168526299        4.7527614249        5.6302548473
  H         9.8374032490        6.4910812243        6.7944221297
  C        10.8218707141        2.9380061857        4.4989672215
  H        13.4623038161        2.0824301980       10.8942894581
  H        12.4993680551        0.7558567908       11.0083547729
  C        12.3314940634        2.2684830840       12.5900828208
  C         7.8218270822        7.7679217238       13.0080573372
  C         7.5737092733        5.4551168497       13.9127520955
  C        10.8809885176        5.4164385899        4.3507027413
  C        11.1545588309        4.0050308227        3.6761584457
  S        11.0182637333        1.3941453208        3.8044938102
  H        12.2375502323        3.3556060962       12.7554185197
  H        11.3491151686        1.8007187026       12.8681455680
  C        13.4158163585        1.6216998836       13.3906502542
  N         7.8868069293        8.8001561507       12.0257181426
  C         7.6723002885        8.2170246097       14.2326338280
  C         7.3443905707        5.9495717499       15.2146995194
  H         7.5032138377        4.3784263917       13.7318214812
  C        12.1393199863        6.2986036798        4.5045476639
  C         9.6996209746        6.2062532895        3.7190017666
  C        11.5503431981        3.5273710270        2.3894858297
  C        11.5022584842        2.1373444895        2.2676262128
  H        14.3674539064        1.8787756792       12.8737400826
  H        13.2733862674        0.5401681396       13.4256434749
  C        13.3622923860        2.2806888876       14.7392919931
  S         7.7842658313       10.2622781503       12.8698505484
  N         7.7916457950        9.6204160967       14.3769502468
  C         7.4083561575        7.4009072179       15.3959447139
  H         6.9817042749        5.2573455670       15.9596704827
  H        11.9362974616        7.0319173413        5.2535408747
  H        12.2855379405        6.8769618684        3.5915883862
  C        13.3979041467        5.4891392834        4.7297481369
  H         9.5190228084        7.0020577548        4.2709426802
  H         9.9628753174        6.7375547552        2.8308185559
  C         8.4619460482        5.3860351135        3.3830547915
  H        11.9243140702        4.1704292824        1.5999331295
  C        11.8789954193        1.3366062769        1.0202213071
  H        14.0309605617        3.1826765526       14.8968220950
  H        12.3877605187        2.7061842004       14.9381445898
  C        13.5445282364        1.2670462124       15.9514535702
  C         7.0710027642        8.0709423578       16.5752334370
  H        13.2945573976        4.6376353667        5.2865548384
  H        13.6245386613        4.9643168406        3.7514310071
  C        14.6035606770        6.2578064465        5.2274263848
  H         8.1218120015        5.0274081846        4.3183710039
  H         8.7935504285        4.5109861993        2.7648572882
  C         7.4340160639        6.2001558898        2.5423841312
  C        12.0649129516       -0.0560383743        0.9244645811
  C        11.9373541944        2.0822195312       -0.3073261474
  H        14.5729229564        0.9492982235       15.8823917687
  H        12.8716675948        0.4392660218       15.8167819848
  C        13.3633214731        1.8369310749       17.3904538579
  H         6.9642579729        9.1775549364       16.4747135443
  C         6.7363186300        7.6498224139       17.8825458092
  H        14.3873574370        6.5767655827        6.2088654367
  H        14.8764913373        7.0756384093        4.6195568217
  C        15.8094167628        5.4038157166        5.3138453273
  H         7.1968121609        7.0526675035        3.1228642083
  H         7.7779134828        6.5870274551        1.6279222305
  C         6.2056899101        5.3114628463        2.3228015541
  N        11.9805654571       -1.0020336891        1.9301293148
  C        12.2297442516       -0.7033230996       -0.3322465377
  C        12.2633797232        1.4808153971       -1.5030656798
  H        11.9911226481        3.1759235440       -0.2587495908
  H        12.3347508480        1.7986174916       17.7945066522
  H        13.6344389722        2.9402018712       17.3861564742
  H        14.0125652904        1.3834850004       18.1474616062
  S         6.3707020791        6.0647603913       18.3360705269
  C         6.5960265044        8.6383861661       18.9226872106
  H        15.6067073336        4.3712317406        5.7158050389
  H        16.1466842910        5.3723794504        4.2238326828
  C        16.9513655638        5.9552536608        6.1839483667
  H         5.8486549478        4.9254599168        3.2697418439
  H         6.4228671093        4.3653352758        1.7794936973
  C         5.1300568753        6.1326156487        1.5432280611
  S        11.7776780494       -2.4787227784        1.3100625389
  N        12.1853702362       -2.1030604692       -0.2483600796
  C        12.5459164117        0.0166243521       -1.5608088736
  H        12.3702148327        1.9946345709       -2.4286997991
  C         5.9598964744        6.7528652010       19.9236491046
  N         6.2107774167        8.0214684990       20.0852305798
  O         6.9881956310        9.7945457859       18.7896378544
  H        17.4215853185        6.6450403238        5.5046705587
  H        16.5408211189        6.4524618797        7.0479968313
  C        17.8774035055        4.8832739363        6.7236311305
  H         5.5709529072        6.5340888573        0.6107586455
  H         4.4053874002        5.4071021922        1.1772908447
  C         4.3960281321        7.2379677570        2.2965252760
  C        12.8416336960       -0.6981259132       -2.7551270104
  S         5.5533595451        5.7908202544       21.3841227995
  C         6.3462247989        8.7914095700       21.3534658937
  H        17.4499388583        4.0266391683        7.2364877127
  H        18.2610797559        4.3782243790        5.8438148730
  C        19.0423908799        5.3703745017        7.5789045639
  H         4.7504687102        7.4757980911        3.3357830830
  H         3.3790863441        6.7265654995        2.4029959353
  C         4.4106508358        8.5159570242        1.4262038027
  H        12.5454399661       -1.7714501581       -2.7610501400
  C        13.3213923483       -0.3704639209       -3.9716983066
  H         5.7219386115        8.4960949567       22.1628754416
  H         5.9822723410        9.7809373755       21.1323879729
  C         7.7618240973        9.0430654131       21.8221900804
  H        19.3396932087        4.6362822669        8.2901436465
  H        18.5334783034        6.2376278902        8.1085674503
  C        20.1985559201        5.6928364499        6.6621961105
  H         5.4298868144        8.7459937064        1.1275357470
  H         3.7929739426        8.3130993110        0.5755424756
  C         3.8458865639        9.7570008605        2.2172000137
  S        13.7593270787        1.2432836068       -4.4154466215
  C        13.4380795299       -1.3937609765       -5.0020050171
  H         8.5409289701        8.6352762207       21.1228162905
  H         7.9587311026        8.4444302181       22.7486173182
  H         7.9476238296       10.0945722073       22.0945265519
  H        20.5202105627        4.7914195607        6.1579658441
  H        19.9122805050        6.4975579965        5.9536402281
  H        21.0734211244        6.0813223882        7.1706846172
  H         3.3749087022        9.4757731624        3.1038410358
  H         4.6649319579       10.4717092363        2.4120590357
  H         3.2686435691       10.4325606700        1.6107047229
  C        13.9586116042        0.5659781736       -6.0362979469
  N        13.7876652976       -0.7814871095       -6.1222746864
  O        13.1627303639       -2.6241311097       -4.8881092738
  S        14.3023449159        1.5405001237       -7.4212073923
  C        13.9042077333       -1.4896167908       -7.4056355177
  H        14.0767486834       -2.5475950999       -7.2459788829
  H        14.7722603214       -1.0915300501       -8.0073206124
  C        12.6155002723       -1.3148898171       -8.2577494922
  H        11.7867794315       -0.8107178409       -7.7568005010
  H        12.2528981604       -2.3173059857       -8.5499025153
  H        12.7791984381       -0.6629304128       -9.1008560116
  H        -2.9399734567       12.4068143261       16.8381278164
  C        -2.4239993527       13.3673809829       16.8924655674
  H        -1.4961230410       13.1224516691       17.3023413323
  C        -3.1347900126       14.2928606969       17.8601273411
  C        -2.0549141314       14.0857682524       15.6280982934
  C        -3.2463448752       13.8224549425       19.2495651016
  H        -2.6268597032       15.2885723452       17.8270613256
  H        -4.1412042983       14.4760109089       17.4653107466
  H        -1.1950014190       14.7458329971       15.7940887195
  H        -1.7866368137       13.4056326893       14.8904923765
  H        -2.8760404263       14.6924341819       15.2329251153
  C        -1.9134197209       13.4302491865       19.8793512953
  H        -3.8726319130       12.9413655109       19.2294742610
  H        -3.8685407269       14.4635649264       19.9485065532
  C        -2.2908643115       13.2217050482       21.4191018126
  H        -1.5888722420       12.5252132192       19.4541486880
  H        -1.2430231246       14.2897555422       19.6456954646
  C        -1.2031586529       12.5603066348       22.2418557020
  H        -3.1223052732       12.5424018374       21.4406183260
  H        -2.5813767034       14.1395901171       21.8738593652
  C        -0.0257234611       13.5098312281       22.5636376153
  H        -1.4519444351       12.1228665027       23.1856302392
  H        -0.7921180013       11.6861759710       21.7170396326
  C         1.2661185836       12.8086985962       23.2266037711
  H         0.3617059506       14.0381543742       21.6427008591
  H        -0.4950571533       14.2689562748       23.1854563113
  C         1.6066904337       11.5397915598       22.4762070874
  C         0.9405972949       12.0298330405       24.4870506672
  C         2.4921093627       13.7621962407       23.3075771528
  C         1.4987174235       10.3874766849       23.2562974399
  C         2.0687330483       11.2468774367       21.2090438710
  C         1.0413289923       10.6711656203       24.4990774576
  C         0.5417539732       12.6420772092       25.6914079669
  H         2.7043432051       14.2506442201       22.3554072685
  H         2.1463909069       14.4992772865       24.0804111159
  C         3.7471951757       12.9668053778       23.7832016624
  S         1.9438941472        8.9564733002       22.4232845188
  C         2.3714137616        9.8956153831       21.0443417052
  H         2.0424538748       12.0191441247       20.4641284106
  C         0.7709540178       10.0296255091       25.6289518582
  H         0.4592804840       13.6800165377       25.5495744749
  C         0.1861617833       11.9722123381       26.8066084631
  H         3.9643994896       12.1412868022       22.9804236196
  H         3.4808606061       12.3673263511       24.6656283492
  C         4.9673205217       13.7931084747       24.1585485530
  C         2.7786348469        9.2569341292       19.7405211348
  C         0.3589736076       10.6468572010       26.8121457380
  H         0.6821411117        9.0215737885       25.4720203391
  C        -0.3204229045       12.2961374737       28.0878457806
  H         5.6690447773       13.1963595710       24.7531716710
  H         4.7052840173       14.4999173130       24.9301536171
  C         5.6824456303       14.4188855395       23.0309261701
  C         2.6096734034        7.9094246677       19.3778689914
  C         3.1691488379       10.1974881095       18.6313052071
  C        -0.0185622310        9.9351421269       28.0824372846
  C        -0.3890501170       11.2142811516       28.9020752871
  S        -0.6579626532       13.7203259436       28.8976151133
  H         6.3097371327       15.3093805455       23.3567816750
  H         4.9903373169       14.9645777092       22.4560241250
  C         6.4780899920       13.4142473281       22.1745289385
  N         2.2479365593        6.9038379345       20.3332082189
  C         2.9335571235        7.4720549312       18.1131401784
  C         3.6289294129        9.7348373230       17.4211350248
  H         3.3544046396       11.2268350801       18.8966172903
  C         1.2266600651        9.3200445231       28.7742825203
  C        -1.2088380144        9.0373817794       27.8171990469
  C        -0.8418433738       11.5856077250       30.2234883129
  C        -0.9808500623       12.9321441029       30.3711344809
  H         7.5219025973       13.4824515735       22.2943301438
  H         6.1314916185       12.4589408048       22.4850477068
  C         6.0317069298       13.4891076925       20.6938173524
  S         2.1988657274        5.5289386455       19.5571966098
  N         2.8266872389        6.0436711711       18.0843758469
  C         3.5014389604        8.2989280909       17.1028074987
  H         4.0730782488       10.4901318951       16.8101711351
  H         1.7329024062        8.6237917676       28.1302683127
  H         0.9732764337        8.6178955672       29.6249041248
  C         2.2879859451       10.2126209791       29.3380310377
  H        -1.0312945687        8.4846225498       26.8268171101
  H        -1.3383312310        8.2670445623       28.4779713201
  C        -2.5494447046        9.7376014957       27.7847967756
  H        -0.9120321107       10.8019666923       30.9633270315
  C        -1.3191577869       13.6297425193       31.6446999593
  H         6.1712085075       14.5551455576       20.4183543722
  H         4.9341669150       13.2304576446       20.7109181423
  C         6.8440280704       12.4322889343       19.8174973630
  C         3.8827766817        7.6473928359       15.9174684871
  H         2.6073606088       10.9559753997       28.6133241657
  H         1.9084806104       10.6839775916       30.2845220585
  C         3.3685824752        9.3043650947       29.9843195372
  H        -2.6974292336       10.3747266214       26.9581675619
  H        -2.7175935593       10.3501366444       28.6872625080
  C        -3.6960477749        8.7904566175       27.7975456925
  C        -1.4776666495       15.0311697026       31.8579550998
  C        -1.4341128797       12.8510201915       32.8674849482
  H         7.3269087609       11.6642386661       20.3843910141
  H         6.0208938216       12.1125485335       19.2219847272
  C         7.8906364870       13.1458252494       18.9770753111
  H         3.9913636034        6.6017933857       15.9506087005
  C         4.1054077727        8.0842487538       14.6089657746
  H         3.8367281215        8.8217627907       29.1415870253
  H         2.9762685170        8.5195801358       30.6135280963
  C         4.2744242779       10.1630813319       30.8752717395
  H        -3.5889194096        8.3168703175       26.8077026928
  H        -3.5904527484        8.1279591402       28.6412417571
  C        -5.0645528417        9.5340163349       27.7566414128
  N        -1.4281007824       16.0131998386       30.8601551654
  C        -1.7709751316       15.6151587684       33.0759182632
  C        -1.6897522161       13.4990412642       34.1314540822
  H        -1.3467809051       11.7492462320       32.7910030678
  H         8.4272405911       13.8516234053       19.6373366812
  H         8.4882726935       12.3337144094       18.5275840091
  H         7.4772400673       13.6791049678       18.1723131049
  S         4.2430255810        9.7283387582       14.0261813248
  C         4.2325845507        7.0025982344       13.5783404052
  H         4.1749488942       11.1896373606       30.5688755276
  H         3.9635646632       10.0741248445       31.9105169749
  C         5.7305873084        9.7913094783       30.7464308074
  H        -5.2290246366       10.4019000638       28.4226362169
  H        -5.8674578935        8.8230800172       28.1142718978
  C        -5.4332135428        9.8852911876       26.3270908747
  S        -1.5914226549       17.4911047506       31.6042927478
  N        -1.9711799756       17.0047339761       33.0774497496
  C        -1.8920062680       14.8907298325       34.2601908500
  H        -1.6721628855       12.8498008976       35.0326592678
  C         4.4655261974        8.9771440784       12.4780304304
  N         4.3319212112        7.6554924164       12.3979900107
  O         4.3314908835        5.7753270628       13.7994440485
  H         6.3838679032       10.4636593745       31.2731683583
  H         6.1346693499        9.8272964945       29.7430182310
  C         6.0610455403        8.3937954091       31.1888201841
  H        -4.6473124398       10.4967975211       25.7542479876
  H        -5.5433269325        8.9297741615       25.8110538722
  C        -6.6349986288       10.6896919673       26.1887906948
  C        -2.0031772365       15.5957439508       35.4445821055
  S         4.5900627174        9.8448913400       10.9353335501
  C         4.1562433297        6.9436111469       11.1295465390
  H         6.7651377585        8.5581681277       31.9712576637
  H         5.2983369534        7.7913941328       31.6200493242
  C         6.6800395888        7.4900534444       30.0597374227
  H        -6.5696039333       11.4868432006       25.4242868348
  H        -6.8307268466       11.1757409895       27.1218630415
  C        -7.8584523960        9.8191669648       25.9007354582
  H        -1.5202820943       16.5943870523       35.4318313819
  C        -2.6146954530       15.1998559297       36.6069752338
  H         4.9095724631        7.3234524086       10.4128234187
  H         4.3791832696        5.8567407529       11.2826349267
  C         2.7380295499        7.0060596843       10.4908284353
  H         7.4075406158        8.0221661943       29.4643085174
  H         5.8793791796        7.3687625499       29.3696832521
  C         7.1887541632        6.1267767246       30.5664744230
  H        -7.7333431041        9.2402534067       24.9992986380
  H        -7.9043315735        8.9213499967       26.5637769506
  C        -9.1670974526       10.5311155959       25.6956168530
  S        -3.3907578450       13.6789491073       36.9336993898
  C        -2.8296759609       16.2067180531       37.7232297760
  H         2.2618631785        7.7914163819       11.0185480176
  H         2.6892761134        7.1319939053        9.3839190219
  H         2.1049579948        6.0809511180       10.6124754599
  H         6.4282621876        5.5828120333       31.0769492341
  H         8.0764914995        6.1928015062       31.1863278023
  H         7.4432959066        5.5394142033       29.7053421617
  H        -9.3285129919       11.2387612198       26.5005962967
  H        -9.9040131611        9.7531137761       25.7442699086
  H        -9.1766083035       11.0418366903       24.7561404275
  C        -3.8622749585       14.3666697726       38.5099652677
  N        -3.5862152798       15.6944688634       38.6789763486
  O        -2.3695890265       17.3574464181       37.7147306291
  S        -4.9614284880       13.5696659938       39.6051241024
  C        -3.8434332868       16.4646383797       39.8878421679
  H        -3.8368532090       17.4811824490       39.5746964352
  H        -4.7660125650       16.2686378267       40.3275052450
  C        -2.6534168905       16.3571729088       40.9122589806
  H        -2.0730487971       15.4646578273       40.6843763102
  H        -2.1412784646       17.3129857748       40.6825468076
  H        -2.9821111018       16.4013710576       41.8787654992
