352
i=
  H         2.6348140474        3.1327624852       12.1080174102
  C         3.0919862636        2.1929301675       12.4722541514
  H         2.7190815705        1.5465146569       11.7244641479
  C         4.5367797465        2.1887879852       12.3088172729
  C         2.5988873760        2.0074972217       13.8851927567
  C         4.9936823113        2.4935529281       10.8807339507
  H         4.8698092294        1.2474980750       12.6590471308
  H         4.7471261258        2.9884856389       13.0198932128
  H         2.5198830138        0.9764920053       14.2110625777
  H         1.5338836556        2.2916645944       13.9275877086
  H         3.1539820865        2.5962789519       14.6701216593
  C         5.2476035859        1.2895389346        9.9353825580
  H         4.2128356289        3.0709308659       10.4245140948
  H         5.8672936702        3.1194544121       10.9855852592
  C         5.8908544414        1.5062741616        8.5451565320
  H         4.2924842267        0.8395421672        9.6012460847
  H         5.8464532498        0.5281488214       10.5338699000
  C         7.2263108114        2.4015431164        8.5550488561
  H         5.1602005927        1.8848456265        7.7897402632
  H         6.0295598818        0.5394514075        8.1463187480
  C         8.3350750944        1.6310688967        9.2298092255
  H         7.4876511744        2.7574124585        7.5340976258
  H         7.0304725388        3.4199668314        8.9436420283
  C         9.5628190360        2.6182214582        9.4123654492
  H         8.7332893561        0.7992663250        8.6378340196
  H         8.0341288615        1.2560887491       10.2199311252
  C         9.1291350377        3.9613393336       10.0443616004
  C        10.0128284004        3.2451166595        8.1428858760
  C        10.7593267358        2.0437294290       10.2111463328
  C         9.2878932752        5.0104236388        9.1537025667
  C         8.5923564967        4.3639992463       11.2778970754
  C         9.9047095777        4.5744590926        7.9495759502
  C        10.4481097235        2.5695877059        7.0203094576
  H        10.3069397390        1.6355327320       11.0771065411
  H        11.2574180806        1.2617465934        9.6791884566
  C        11.7729326383        3.1234348201       10.6407157160
  S         8.7136266824        6.5108581185        9.8125136686
  C         8.4240859238        5.6840863138       11.3656391819
  H         8.3110874418        3.5633560524       11.9385665679
  C        10.1537841274        5.1046146791        6.7464429957
  H        10.4500675181        1.4249813036        7.0379823775
  C        10.7339406993        3.1142010099        5.7919961843
  H        11.1782589526        3.8981538043       11.1385303955
  H        12.1268838195        3.5215499077        9.7617626843
  C        12.9876070769        2.6129544613       11.4067792193
  C         7.9314623017        6.3920430227       12.5413522698
  C        10.6191123713        4.4434280950        5.6046512109
  H         9.9746230081        6.1274629905        6.5374125865
  C        11.0906645178        2.7053194814        4.5071942039
  H        13.7118374948        3.4521325249       11.5337717484
  H        13.5234487767        1.9317039973       10.7731912671
  C        12.7559282684        1.7987933325       12.7256393326
  C         7.9892251507        7.7604553209       12.7851897233
  C         7.3245476674        5.5585622508       13.6457115028
  C        11.0334485513        5.1667295903        4.3876780047
  C        11.3277065755        3.8112345152        3.6352235722
  S        11.2331055165        1.2123428000        3.6342412406
  H        12.3092574419        0.8558424857       12.4392911165
  H        13.7651960257        1.5970245631       13.1980913857
  C        12.0036949040        2.6373238657       13.7681528528
  N         8.2169441926        8.7184866456       11.7756536868
  C         7.7173739164        8.3077917108       14.0307952660
  C         7.0764627193        6.1447667114       14.9023042911
  H         7.2440564507        4.4709402177       13.4657967661
  C        12.2944197686        5.9909584039        4.5120590209
  C         9.8805297985        5.9584531469        3.7353871452
  C        11.7689684361        3.3894998205        2.3608959319
  C        11.7012354514        2.0319052332        2.1587481927
  H        10.9803210938        2.8197082878       13.4094933237
  H        12.5771192458        3.6522081647       13.9023408048
  C        12.0259954574        1.9070683443       15.1387727798
  S         8.0099054880       10.2107929817       12.3878292993
  N         7.5759195942        9.7255646377       13.9387740101
  C         7.3738449527        7.5990574530       15.1674600636
  H         6.6801115446        5.5569701526       15.6647195422
  H        12.0596025326        6.8725620353        5.1874642294
  H        12.5604333634        6.4558512819        3.6207082728
  C        13.4737239991        5.1653623118        4.8977285237
  H         9.5651837388        6.7188906086        4.3783262669
  H        10.1957001776        6.5779362534        2.8862145755
  C         8.6726038435        5.0957400296        3.4116932646
  H        11.9072187658        4.0521608170        1.5691449176
  C        12.0449302830        1.2788859389        0.8932608932
  H        11.0095743767        1.8120845012       15.4480447289
  H        12.3154081544        0.8462501447       14.9099644031
  C        12.8866485864        2.5630813947       16.3013710626
  C         7.1249929497        8.3358855287       16.3719609493
  H        13.2069100276        4.4740945467        5.7044149283
  H        13.9476465625        4.6157854384        4.0823365554
  C        14.6195991837        5.9827661559        5.5491584040
  H         8.3486517440        4.5379076814        4.2681137781
  H         9.0577036670        4.3266211635        2.7516297113
  C         7.6444414564        5.9853767121        2.8666924786
  C        12.0410202284       -0.0907507574        0.7256528532
  C        12.1256533890        2.0881895984       -0.3482188511
  H        12.3742025905        3.3945475994       16.6133119588
  H        13.8722146331        2.7826180095       15.8708428549
  C        12.9549021772        1.6901134246       17.5003164200
  H         7.2765520947        9.3927020603       16.3544495961
  C         6.7688629903        7.9271697748       17.6191173580
  H        14.2969377699        6.7024422044        6.3164671234
  H        14.9983638668        6.5871576960        4.7317651687
  C        15.6102654514        5.0336374330        6.2398457383
  H         7.1266817675        6.6068028735        3.6225836635
  H         8.0504827690        6.7048371923        2.1653797723
  C         6.7089133933        5.2531393254        2.0113445442
  N        11.8215575171       -1.0637743084        1.7176970533
  C        12.1332214615       -0.6323964992       -0.5165850833
  C        12.2351664538        1.5258839036       -1.6656593576
  H        12.2555335175        3.1347427868       -0.3116362226
  H        13.3821234651        2.2455212801       18.3075532202
  H        13.6292947515        0.8596469403       17.2660243436
  H        12.0299646759        1.3081779642       17.9165269558
  S         6.3850045412        6.2994410971       18.1052808354
  C         6.7620067610        8.9129860529       18.6656415881
  H        15.2616528163        4.9629490200        7.2788673120
  H        15.6905868103        4.0519901810        5.7653213048
  C        17.0128743660        5.6241990502        6.3322832880
  H         6.5187259951        4.2410568443        2.5173032175
  H         7.1489057430        5.0600594920        1.0640340709
  C         5.3248104180        5.8564262377        1.7590915740
  S        11.6550851615       -2.5226480701        1.1002988301
  N        11.9337774646       -1.9967634653       -0.3802772588
  C        12.3921328742        0.0582561769       -1.7028476081
  H        12.3624308505        2.1780305719       -2.5321269312
  C         6.2927525013        6.9516776415       19.7127964175
  N         6.5046948686        8.2833673661       19.8464532018
  O         7.1683088187       10.1021003257       18.5399796052
  H        17.4902528839        5.5992291021        5.3488507187
  H        16.8949617767        6.6463717477        6.6950024187
  C        17.9419544808        4.7833257448        7.1376351442
  H         4.8186403070        5.0338404520        1.1996473068
  H         4.8693140646        6.0017938361        2.6946999094
  C         5.2962061337        7.1895222547        0.8508141063
  C        12.6350447460       -0.7563487082       -2.8771145056
  S         5.8489714520        6.0065325410       21.0825122960
  C         6.6868445309        8.9807019432       21.0935956860
  H        17.6073254620        4.7986185121        8.1471468510
  H        17.8912508938        3.7318144613        6.8470244703
  C        19.3390445349        5.4447648620        7.1003534914
  H         5.0900075613        6.8858649520       -0.1897304956
  H         6.3199234031        7.6574672460        0.7665211727
  C         4.2448574579        8.2190602444        1.3207338249
  H        12.3388336652       -1.7677580978       -2.7492729407
  C        13.1026129412       -0.4619801595       -4.1115956881
  H         6.2663185229        8.5396518213       21.9643877439
  H         6.3460098933       10.0637614785       20.9984159291
  C         8.1365560421        9.1251848553       21.5488415049
  H        19.9513872283        5.3119511836        8.0066611841
  H        19.0698841787        6.4627464395        7.1186718524
  C        20.2394020486        5.0994672657        5.9502560856
  H         3.9114879909        8.9772272454        0.5833420753
  H         3.3408201457        7.6613503134        1.6279276254
  C         4.7561262254        9.1695761598        2.5039109990
  S        13.7379429638        1.0458229824       -4.6253526930
  C        13.0769610744       -1.5543315256       -5.1298455620
  H         8.2238017287        9.0131243580       22.6332149199
  H         8.4562181793       10.1252627144       21.4232298274
  H         8.9603250740        8.4893597689       21.1712282821
  H        19.6465370629        4.7449501848        5.1243268286
  H        20.7911284958        6.0024868244        5.6862743831
  H        20.9468744213        4.2784004154        6.2341151575
  H         3.9378539391        9.3476422159        3.1825945416
  H         5.6259332303        8.7682288342        3.1341592264
  H         4.8623479830       10.1968198662        2.1665169065
  C        13.8001529554        0.3351556566       -6.2652617232
  N        13.6322815658       -1.0582668944       -6.2838258184
  O        12.7257602845       -2.7211483644       -4.9207334639
  S        14.4070612882        1.1645729176       -7.6494489977
  C        13.7724184667       -1.9431713860       -7.4356527282
  H        14.0511659681       -2.9545108375       -6.9962143720
  H        14.6256293912       -1.5132599663       -8.0159627760
  C        12.5689213015       -1.8175194569       -8.3257729908
  H        11.7806400718       -1.3629600525       -7.7254281686
  H        12.0094579686       -2.6580408519       -8.5623059010
  H        12.6856371400       -1.1855145738       -9.2261993478
  H        -3.2226974975       14.7026191743       16.0076451997
  C        -3.2163314456       13.6251461384       16.2079996359
  H        -4.2106559174       13.2902138659       16.5909629600
  C        -2.2768788292       13.3281311555       17.3638644873
  C        -2.9560524641       12.8407964226       14.8802572910
  C        -2.7798553587       13.6061382012       18.8437612434
  H        -1.7095844867       12.4244317161       17.3012877614
  H        -1.5139872914       14.1519942958       17.2486021701
  H        -2.5399557085       13.5068535396       14.1366065870
  H        -2.3445667460       11.9014013218       14.9142073176
  H        -3.9624803201       12.5971609550       14.6026895543
  C        -1.7005718169       13.3711092824       19.8870425129
  H        -3.6808507909       13.0274491725       19.0914185957
  H        -2.9624672440       14.6993325019       18.8746053506
  C        -2.2013272477       13.3947846487       21.3634012140
  H        -1.1452539493       12.3741045979       19.6746698479
  H        -0.9150571131       14.0278142243       19.6891564390
  C        -1.1314829611       12.7735533875       22.2399076469
  H        -3.1206167716       12.8455077862       21.5357400348
  H        -2.4567321540       14.4707598753       21.5728441752
  C         0.1465353415       13.5999439038       22.3502753076
  H        -1.5808006106       12.5621122825       23.1724247888
  H        -0.9431501343       11.7718256178       21.8617506283
  C         1.1635235517       12.9689297636       23.3093256345
  H         0.5880784362       13.6863151756       21.3749368004
  H        -0.1270644268       14.5315107419       22.8456187548
  C         1.5275105524       11.5863027384       22.6503894126
  C         0.6792273429       12.2009651900       24.5027046502
  C         2.4085572002       13.8371482176       23.6186306294
  C         1.3269616543       10.4613064162       23.4808656168
  C         2.0801555500       11.2221708158       21.3722382617
  C         0.7336025058       10.8695809256       24.6353487335
  C         0.2555999908       12.8321845826       25.6649156358
  H         2.6002416288       14.3402236256       22.6819211747
  H         2.1369538706       14.6759389211       24.2703066826
  C         3.6785107139       13.0949645249       24.0939164249
  S         1.6867837804        8.9335836332       22.6593875697
  C         2.1945365071        9.8867362112       21.2503374202
  H         2.2356908729       12.0271910897       20.6338466312
  C         0.3047916961       10.2350090433       25.7841086547
  H         0.2733896581       13.9038438696       25.5464037957
  C        -0.0191059465       12.2115608944       26.8771383726
  H         4.1179920740       12.3899746792       23.3945170383
  H         3.3931842655       12.6369911221       25.0360759414
  C         4.8252699012       14.0717056341       24.3841163253
  C         2.5919018157        9.1934170775       19.9598946972
  C        -0.1423735670       10.8737239892       26.9758829985
  H         0.1959460124        9.1722691581       25.7864344000
  C        -0.4161295469       12.6354847053       28.1113313384
  H         5.6431481671       13.6949818429       25.0169187122
  H         4.5228701885       15.0131125066       24.8197634116
  C         5.5132038434       14.5342576370       23.1460768525
  C         2.6069704198        7.7358638750       19.8473240962
  C         2.9060154039       10.0425325092       18.8122881957
  C        -0.5256035269       10.1582774830       28.2258498479
  C        -0.7450792217       11.5706440706       28.9325275097
  S        -0.6109462727       14.1797012980       28.8602178296
  H         6.1893850030       15.2941048396       23.5804950835
  H         4.8322819924       15.0435287806       22.4237534378
  C         6.4686844821       13.4021331709       22.4729059004
  N         2.1510726314        6.7431223009       20.7868298345
  C         3.0481931418        7.1617408805       18.6520959849
  C         3.2216399240        9.3853527610       17.6194743963
  H         3.0562935888       11.1256941506       18.8127448328
  C         0.6128612291        9.4982537230       28.9497076307
  C        -1.7071531110        9.2534685015       27.9608044219
  C        -1.0994252532       12.0357211280       30.2446459248
  C        -1.0619876717       13.4125978626       30.3350164518
  H         7.4650887281       13.6557174689       22.8150147552
  H         6.2617900387       12.3766139909       22.8211413142
  C         6.3172454155       13.4968816640       20.9241875321
  S         2.3892213112        5.2678650060       20.1316292697
  N         2.8626090045        5.7662261311       18.6685825542
  C         3.2215515350        7.9369290192       17.4427704233
  H         3.4217520044        9.9843867854       16.7643503468
  H         0.8432531144        8.5908378221       28.3277642172
  H         0.2333418620        9.2369253832       29.9812371068
  C         1.8197858896       10.3086659976       29.2704852341
  H        -1.4583673542        8.5200460522       27.1652093228
  H        -1.8662822658        8.6997853346       28.9149423214
  C        -2.9474718776       10.0290049970       27.6432917826
  H        -1.4396246294       11.3573558348       30.9617592322
  C        -1.1594343715       14.1172737280       31.6456394971
  H         6.1700733940       14.5708040847       20.6581726057
  H         5.5355228579       12.8676688268       20.6088705685
  C         7.5429011931       13.1758970954       20.0307686620
  C         3.4222294306        7.2284184117       16.2006908714
  H         2.2624254925       10.7911135844       28.3999276458
  H         1.4832649006       11.0199973522       30.0037938583
  C         2.8484101314        9.4652104235       30.0261539201
  H        -2.8376396704       10.7027618325       26.7931331979
  H        -3.2004684780       10.7454211671       28.4961878340
  C        -4.0834154528        9.0438214224       27.3667524792
  C        -1.1630977069       15.4699704601       31.8205853234
  C        -1.1967180020       13.3020161086       32.8578688999
  H         8.2817858694       13.9156175076       20.2905867499
  H         7.9179599083       12.1912779388       20.1404802992
  C         7.3916324772       13.5158441893       18.5677245939
  H         3.2424434089        6.1147960272       16.2627281983
  C         3.8414702465        7.6429148045       14.9590950103
  H         3.4552291236        8.8458349744       29.3444335046
  H         2.2298255081        8.8864731939       30.7498988984
  C         3.7367422178       10.3613289402       30.9018494023
  H        -3.8053934768        8.2850666198       26.6909353309
  H        -4.2477679800        8.4379158069       28.3000469009
  C        -5.3800280914        9.8102821960       27.0060360937
  N        -0.9313777806       16.3712683678       30.7683913192
  C        -1.3330873628       16.1090963790       33.0214409784
  C        -1.5174451897       13.9588911259       34.0762788663
  H        -1.0937297406       12.2315752463       32.7691189698
  H         7.5988949235       12.6330926924       18.0033509652
  H         6.4111608327       13.7927200676       18.1821794274
  H         8.0348659011       14.3872351772       18.2543132075
  S         4.3323387849        9.2381552749       14.4832555372
  C         3.9521028020        6.6500129064       13.8960636610
  H         3.5180181597       11.3959977201       30.5969187543
  H         3.4149198905       10.2933612461       31.9343823698
  C         5.2247203054       10.1940008140       30.7440627386
  H        -5.3130092830       10.7482852984       27.5466121730
  H        -6.2308783408        9.2648625783       27.3365417632
  C        -5.5886801849        9.9045716616       25.4760109563
  S        -1.1662323933       17.8829704721       31.2607988765
  N        -1.2881121159       17.5265600617       32.8869765812
  C        -1.7095624760       15.4392363414       34.2093871187
  H        -1.6392677397       13.3613992559       35.0291752682
  C         4.3853381588        8.6374331957       12.8162414889
  N         4.3488017449        7.2431912978       12.7431918227
  O         3.7653956415        5.4576902813       14.0367398336
  H         5.7664526016       11.0698089385       31.1228647613
  H         5.4888041601       10.1691232410       29.7302229243
  C         5.8127934773        8.9955312955       31.3604331458
  H        -4.6983282643       10.3563889456       25.0419757923
  H        -5.6492855604        8.8819134224       25.0088196477
  C        -6.8335194797       10.8357374538       25.2078975930
  C        -2.1505761089       16.1579499944       35.3197166290
  S         4.7439226870        9.6772357128       11.3164501375
  C         4.2970025161        6.4102752847       11.5486441428
  H         6.5928511384        9.2752042301       32.0499666610
  H         5.1274701908        8.3034561949       31.9288809208
  C         6.6449552198        8.0771235371       30.3769329767
  H        -6.6054398483       11.5905911229       24.3752800088
  H        -7.0913636813       11.3557923741       26.1060396186
  C        -8.0848573207       10.0158148441       24.8166220468
  H        -1.7342008354       17.1778634378       35.4043077820
  C        -2.7430292899       15.8064587149       36.4832254364
  H         4.7530853079        6.8759531500       10.6229963194
  H         4.9250064300        5.5066098836       11.6655609457
  C         2.8619120300        6.2685425104       11.1129861036
  H         7.5459909343        8.6294956752       30.1455595081
  H         6.0634561345        7.9423789283       29.4424107205
  C         7.1294877594        6.8065842687       31.1200798656
  H        -8.3811113995       10.4710392881       23.8706779597
  H        -7.8740447649        9.0062435283       24.5946350192
  C        -9.1011949827       10.0191931493       25.9952314312
  S        -3.3144537793       14.2421991885       36.8892807039
  C        -2.9477827199       16.7613732686       37.6566263310
  H         2.7174205627        5.6823471859       10.2365213200
  H         2.2974414456        5.7245055034       11.9058177711
  H         2.4707655988        7.2693592269       10.8811534253
  H         7.6683009994        7.0296086424       31.9784003061
  H         7.7316814100        6.2059461648       30.4139823742
  H         6.2763569481        6.2083251068       31.3822807734
  H       -10.1591334609        9.9627805160       25.6435397516
  H        -9.1077948529       11.0010509565       26.5246519760
  H        -8.9007084065        9.2028154709       26.7623813664
  C        -3.6675250980       14.8113717043       38.5320112357
  N        -3.4972548725       16.1586430576       38.7299243141
  O        -2.6740075311       17.9188226248       37.6225748542
  S        -4.2984652624       13.8706084864       39.8341756819
  C        -3.5984152568       16.9192149359       39.9461114489
  H        -3.8473134589       17.9465723533       39.7412156683
  H        -4.4046362992       16.4440856152       40.5266565960
  C        -2.3386779988       16.7610690097       40.7167123597
  H        -1.4861759263       17.4217723527       40.3061630488
  H        -2.3646153695       16.8373222458       41.8020555146
  H        -2.0190777766       15.6333817071       40.5742244794
