352
i=
  H         4.6628077111        1.6373391571       12.3327743644
  C         3.9393442346        2.5151585228       12.6124770631
  H         4.5303656981        3.4109919116       12.7766131927
  C         3.0104456828        2.7505486324       11.4512527121
  C         3.0801567289        2.1974745913       13.8839927788
  C         3.7771136764        2.9092400239       10.1478128181
  H         2.4481552464        3.6655346984       11.5863602552
  H         2.2760749881        1.9501220890       11.4068405191
  H         2.9038585185        1.1456726997       14.0545210811
  H         2.0218683725        2.5498303012       13.6208553695
  H         3.5317328181        2.5380146281       14.8499010195
  C         4.5528368554        1.6768870057        9.6342272658
  H         3.1893872506        3.2401673731        9.2753504961
  H         4.3932162097        3.7505391383       10.3455850391
  C         5.2545809763        1.8600014418        8.3005760201
  H         3.9195478711        0.7773644383        9.5164796308
  H         5.2852932734        1.3670985722       10.4285984641
  C         6.5435892116        2.6620904095        8.4220781931
  H         4.4927323128        2.3452966900        7.6839598990
  H         5.4654796935        0.9206812726        7.7828156302
  C         7.7532056331        1.8929671329        8.9590333046
  H         6.7598842502        3.1466615334        7.4208252225
  H         6.2291582863        3.5789637945        8.9981701098
  C         8.9274104076        2.8124725592        9.2983704316
  H         8.1263736697        1.2120158031        8.1933037714
  H         7.4358211501        1.2861007447        9.7957678781
  C         8.5616364812        4.1154537394        9.9750237670
  C         9.5652557023        3.5573981622        8.1238840560
  C        10.0224405485        2.1140739263       10.1242321226
  C         8.8948133156        5.2901453732        9.2727116765
  C         7.9123770936        4.5236426560       11.1329848147
  C         9.5720053392        4.9203719664        8.0656376345
  C        10.0974189348        2.9808733433        6.9643693648
  H         9.3705437383        1.4403185971       10.6728937245
  H        10.5275171221        1.4109831005        9.4678461055
  C        10.9908890722        2.9530634610       11.0085663555
  S         8.4846362858        6.7379202856        9.9150079031
  C         7.7929401256        5.9144843565       11.2176159130
  H         7.5536975683        3.7667900800       11.8076515732
  C         9.9520296646        5.5372787526        6.9267520865
  H        10.1535374670        1.9411337577        7.0254293466
  C        10.4072288308        3.6503769360        5.7880280010
  H        10.5144403403        3.5732578963       11.7112547860
  H        11.5395958591        3.6370463820       10.3749942583
  C        11.9913287634        2.1852492489       11.8238036125
  C         7.3303609861        6.6332598989       12.4344516440
  C        10.3269125024        4.9793618697        5.7204317945
  H         9.7190592090        6.6324428352        6.9129387091
  C        10.7474261485        3.2183078310        4.4835845963
  H        13.0026229116        2.6157471801       11.6493402798
  H        11.8375922349        1.1337969725       11.4942029422
  C        11.7538367682        2.3886921805       13.2734887788
  C         7.5195096584        8.0472332169       12.7164777269
  C         6.9140656867        5.8707431144       13.6209956891
  C        10.6607608598        5.6623579638        4.4353280447
  C        10.9035981165        4.3014406664        3.6661534253
  S        10.9224739913        1.6723938669        3.5813604947
  H        11.5111180793        3.3661088841       13.5638393069
  H        10.9935083339        1.7067061687       13.5393387859
  C        13.0035494556        1.9902096351       14.0376094240
  N         7.8253081309        9.0156286152       11.7781875200
  C         7.3002606035        8.5910586745       13.9743681594
  C         6.7766878013        6.4124409493       14.8843201560
  H         6.7986912474        4.8110499077       13.5465837346
  C        11.9115329038        6.5406789755        4.4824871233
  C         9.4343646007        6.3051675325        3.7014707727
  C        11.2822105548        3.9432558247        2.3722758102
  C        11.2084212872        2.5887451836        2.1571580293
  H        13.5263298123        2.8923800342       14.4183704427
  H        13.8131319580        1.5862850808       13.4611414483
  C        12.6844275500        1.1146919612       15.2771150723
  S         7.9514598645       10.4337116873       12.5225948847
  N         7.5134920238        9.9577476684       13.9823122429
  C         7.0442086069        7.8369298890       15.1900490125
  H         6.5145116760        5.6506366432       15.5715333668
  H        11.7870865617        7.3646313926        5.1811896459
  H        12.1307176084        7.0251534422        3.5493466005
  C        13.1235663854        5.7719769067        4.9839026272
  H         8.9438560920        7.1598260441        4.2061233205
  H         9.5996880221        6.6756730933        2.7355710076
  C         8.2357392693        5.3543485799        3.5050520532
  H        11.4258335123        4.7005365143        1.6500842040
  C        11.4668285301        1.8573868389        0.8738634872
  H        12.0455610092        0.2751543911       14.9957618235
  H        13.6223773652        0.6287525840       15.6715023462
  C        11.9822624736        1.9032044582       16.3887351522
  C         6.9788956693        8.5164675174       16.4630057290
  H        12.9531321054        5.4412142335        5.9943700401
  H        13.2993760320        4.8894744015        4.3719877579
  C        14.4374113672        6.5076031902        4.7317631261
  H         8.0655943342        4.9714463744        4.5309116643
  H         8.4560047534        4.4798489052        2.8659562422
  C         7.0772545133        6.0659261755        2.8539883435
  C        11.5887176824        0.4522017573        0.7891523459
  C        11.6420264958        2.5707115924       -0.3733710455
  H        11.4936922373        1.0868384287       16.9657853390
  H        11.2647728410        2.6001083531       16.0531441359
  C        12.8952261782        2.5662286512       17.4438467050
  H         7.0437066565        9.6517840580       16.4311648629
  C         6.6405660362        8.0014969186       17.7122283040
  H        14.4637593097        7.4307039043        5.2032472219
  H        14.4882143208        6.7444143394        3.6383774176
  C        15.5741564014        5.6915209209        5.1929781303
  H         6.7528264545        6.8806126019        3.5343306658
  H         7.4169758327        6.5571516806        1.8713744099
  C         5.8269280693        5.1231667399        2.7745561785
  N        11.3151618404       -0.4680621198        1.8355613708
  C        11.8251906652       -0.2023802552       -0.4160397324
  C        12.0606064651        1.9530020415       -1.5644270572
  H        11.8598507498        3.5950803567       -0.2570437709
  H        13.7916226896        3.0008589722       16.9338205315
  H        13.2870542596        1.8144906693       18.0723523347
  H        12.4632587501        3.3242549389       18.0696524501
  S         6.2680338145        6.3577393932       18.0787969140
  C         6.3997269866        8.9939088516       18.7959805069
  H        15.6723816133        4.7675511834        4.6514034600
  H        16.4364536310        6.0625964655        4.6437166380
  C        16.2104181510        5.8639211000        6.6332948956
  H         5.3622192098        4.8161241301        3.7679314907
  H         6.1442928988        4.2041978074        2.2725851261
  C         4.8274630588        5.7650788852        1.7538952495
  S        11.4835034731       -2.0205730797        1.2412613321
  N        11.8676088243       -1.5788955690       -0.2244167848
  C        12.1009765667        0.4872127278       -1.5755032684
  H        12.3074612912        2.5769719441       -2.4252574485
  C         5.8984112052        7.0189400039       19.7264596923
  N         5.8670779439        8.3756198783       19.8367115661
  O         6.4576373008       10.2168225433       18.6518193069
  H        16.2616539649        6.9724447918        6.8687828632
  H        15.5334537856        5.6773825568        7.4478604143
  C        17.3748843774        4.9573794395        6.8894156961
  H         5.2837332210        5.8192590737        0.7385011359
  H         3.8724818836        5.1620507616        1.6895007205
  C         4.4272114959        7.2034023180        2.1495138565
  C        12.5307939070       -0.3488132023       -2.6485302476
  S         5.5338592194        5.9958855838       21.1346324068
  C         5.6000397545        9.0077505726       21.0890091542
  H        16.9426331781        4.0242592947        7.2452293975
  H        17.8133646114        4.6301625906        6.0219860193
  C        18.4614645478        5.4894688585        7.7642397098
  H         4.8860502642        7.3640782214        3.1819225557
  H         3.3550406547        7.3188836359        2.1939656669
  C         4.8700679431        8.1624221321        1.0780854061
  H        11.9865997341       -1.2486115328       -2.6517530271
  C        13.0182264036       -0.0440002977       -3.9114388621
  H         4.7508799034        8.5742201332       21.5890172427
  H         5.2250478789       10.0103039758       20.9176647816
  C         6.8372185430        9.0301019191       21.9488759580
  H        18.5997651533        4.8460469995        8.6278254006
  H        18.1734472449        6.3562993501        8.1397414407
  C        19.6279156283        5.9227094554        6.9238659260
  H         5.8859086911        8.2942057045        0.9600341156
  H         4.5559008313        7.6765384236        0.1373973319
  C         4.2342908010        9.5324883353        1.2666660210
  S        13.7217749503        1.4562386439       -4.4740240716
  C        13.1038334147       -1.1909820795       -4.9134841644
  H         6.6496675114        8.6361183624       22.9244837496
  H         7.1946473190       10.0419428923       22.1220783596
  H         7.5296167486        8.4164012792       21.4490352368
  H        20.0769466079        5.1087893994        6.3003233627
  H        19.3493481783        6.7853701208        6.3139554268
  H        20.4440669799        6.2122344833        7.5562573055
  H         3.1783516884        9.4389081030        1.4181471992
  H         4.7424847726       10.0238815035        2.1550517245
  H         4.3666381748       10.2562228817        0.3744936112
  C        13.9783051003        0.5960420646       -5.9778391337
  N        13.7008087159       -0.7232104052       -6.0386204349
  O        12.8753241444       -2.3483797118       -4.6516282414
  S        14.6675856168        1.3594479159       -7.4275174521
  C        14.0542501237       -1.6775258934       -7.1671922472
  H        14.1739777248       -2.5997456092       -6.7747829587
  H        15.0356985392       -1.3660378647       -7.6087093490
  C        13.0114831092       -1.6275620380       -8.3290889177
  H        12.0172238967       -1.9751186753       -8.0282311593
  H        13.3753614808       -2.3063653845       -9.1844233409
  H        12.8968656081       -0.6138867010       -8.7418064269
  H        -3.5315102276       14.5252156478       16.7277763049
  C        -3.3699672020       13.4812861461       16.7342800160
  H        -4.2330147214       13.1760329784       17.2925261010
  C        -2.1520214264       13.2747841588       17.5588504815
  C        -3.3790421663       12.8138864614       15.3775072958
  C        -2.2818386169       13.7867333742       18.9632813000
  H        -1.9516255274       12.2691154350       17.4653761582
  H        -1.3589503779       13.8205672337       17.0267538247
  H        -3.0944953237       11.7982732145       15.3428158552
  H        -4.2225407712       13.1240423415       14.8135527482
  H        -2.4474155796       13.1562838502       14.9069650518
  C        -2.5587847492       12.5943284085       19.9263946261
  H        -3.1885982174       14.4834926891       19.0078748088
  H        -1.4276764735       14.3412230479       19.3154251898
  C        -2.6427411508       13.1071486560       21.3709089718
  H        -3.5103785329       12.1732848796       19.6143273039
  H        -1.7633380999       11.8066110002       19.8710372533
  C        -1.5997477674       12.6158267168       22.3984220013
  H        -3.5524719309       12.7911415510       21.8669284277
  H        -2.5796830249       14.1761954061       21.3603885133
  C        -0.2595916739       13.5689255464       22.4072447837
  H        -2.0555984756       12.7645841492       23.3863646958
  H        -1.3839142846       11.5228491225       22.2993269683
  C         0.8876248683       12.9590498117       23.2159290869
  H        -0.0035532853       13.7510501325       21.4050077088
  H        -0.4484204952       14.5689386960       22.8493532775
  C         1.2615456335       11.5762517675       22.6448247005
  C         0.5632047878       12.2985584193       24.5086793492
  C         2.2341948326       13.7675216266       23.3682389465
  C         1.0571458972       10.4918375955       23.4743059390
  C         1.6923854990       11.1809504160       21.3743254047
  C         0.6462005600       10.9653302990       24.7174548750
  C        -0.1095138195       13.0014553547       25.5752661543
  H         2.4473448657       14.2215804433       22.4138037926
  H         2.0302923125       14.5802797817       24.0606236147
  C         3.4930014053       12.9804469774       23.7304672218
  S         1.3716778076        8.9528396275       22.7031328641
  C         1.7369533743        9.8372066841       21.2327388032
  H         2.0500427766       11.9472533726       20.7207640147
  C         0.2600548874       10.3919351191       25.8724372131
  H        -0.2962675089       14.0545130888       25.5479261921
  C        -0.4565264220       12.3737192126       26.7415741754
  H         3.7723306521       12.2040413866       23.0527351047
  H         3.3753650439       12.4348989857       24.6166505144
  C         4.7268660840       13.9658977327       23.9503383446
  C         2.4361301345        9.1192135838       20.0702517214
  C        -0.3537832274       11.0546588595       26.9127559260
  H         0.1429265514        9.2779495456       25.7480639007
  C        -0.8647526908       12.8024371195       28.0145245800
  H         5.4699407553       13.4593354909       24.5613613929
  H         4.2450185198       14.7414307737       24.4374179759
  C         5.4438340030       14.2615712714       22.6305898288
  C         2.3733940858        7.7351104928       19.7602851678
  C         3.0274710759        9.9652536393       19.0053214330
  C        -0.8862899014       10.4035874165       28.2664857892
  C        -1.1506769923       11.8048214680       28.8804867986
  S        -1.0984738446       14.3886203794       28.6984170299
  H         6.1485396558       15.0882868322       22.8279333057
  H         4.7031492398       14.6951344194       21.9560833694
  C         6.1435800954       13.1537721775       21.9412841079
  N         1.9199552576        6.7603969081       20.5919577923
  C         2.7600559030        7.2477448362       18.5282585271
  C         3.4227131562        9.4645161666       17.7647609753
  H         3.2600463035       11.0023295640       19.1228702006
  C         0.1839009751        9.6345027888       29.1052965617
  C        -2.0891939593        9.4768631481       28.1559170820
  C        -1.5284291945       12.3085001488       30.1302376319
  C        -1.4512507571       13.6688230431       30.2242625353
  H         7.1773003460       13.0613287809       22.3166411265
  H         5.7343065074       12.2080138892       22.1001416854
  C         6.1724990417       13.4280208829       20.3659618843
  S         2.2753754401        5.2556716162       19.9874623702
  N         2.6561708567        5.8283895367       18.4802591063
  C         3.2327266301        8.0628024871       17.4882052379
  H         4.1478434584        9.9453745699       17.1499940942
  H         0.4723807526        8.8105017963       28.4079082152
  H        -0.1841974898        9.2619973218       30.0634857015
  C         1.4626474583       10.4685868967       29.4079117009
  H        -1.9211854251        8.8255584054       27.2755993299
  H        -2.1511512522        8.8342507299       28.9595507965
  C        -3.3777637684       10.3032116308       27.9244924489
  H        -1.9860299552       11.6287739973       30.8263911906
  C        -1.7371847118       14.4762192574       31.4271878674
  H         5.7020644463       14.4146833755       20.0869369483
  H         5.4700979450       12.6792582498       19.8831571741
  C         7.5218397340       13.2824452037       19.6784483144
  C         3.4299705419        7.4179908661       16.2449367879
  H         1.7344472064       11.0966823041       28.5680090812
  H         1.3536068286       11.2367388769       30.1899682482
  C         2.5771178401        9.4528450488       29.7627115887
  H        -3.1970969183       11.1723698814       27.2906779707
  H        -3.7114405196       10.6493519910       28.8637663553
  C        -4.4748591050        9.4026069988       27.4169133246
  C        -1.7353035480       15.8848090060       31.5765210346
  C        -2.0651489959       13.8262761159       32.6796807418
  H         8.1985796524       14.0109267643       20.1536873098
  H         7.9079348072       12.2802623029       19.7519885557
  C         7.3717515217       13.4535482161       18.2437202623
  H         3.1776692840        6.3813344653       16.2522486297
  C         3.7190267311        7.9692960825       14.9750254971
  H         2.8120660043        8.8030674686       28.9022089062
  H         2.1029756380        8.7322920224       30.4322484479
  C         3.8146177860       10.1538339498       30.2377495384
  H        -4.2081452792        8.8438789313       26.5479560502
  H        -4.7008973480        8.6223351735       28.1013602264
  C        -5.6485984865       10.1726098252       26.9847331337
  N        -1.3469924202       16.8280749992       30.6164916538
  C        -2.0495516064       16.5504008303       32.7813693625
  C        -2.3386974750       14.4145278526       33.8905276894
  H        -2.1170457645       12.7413699773       32.6241995486
  H         7.8677068723       14.3108656646       17.7892090421
  H         7.8378668788       12.6699228380       17.6377647947
  H         6.3082061725       13.5246991614       18.0548833702
  S         3.9690196048        9.6355233529       14.5095840828
  C         3.5870296428        7.0007339045       13.8745700250
  H         3.9698348433       11.1168746275       29.7513877609
  H         3.7053624225       10.3870161387       31.3425052202
  C         5.0932141734        9.1926238316       30.2657837882
  H        -5.4469976267       11.1680700229       26.6153613090
  H        -6.2540640288       10.4072650603       27.8684745419
  C        -6.5711200960        9.5315351167       25.9568561383
  S        -1.5940670521       18.3189019163       31.1695103422
  N        -2.1628891426       17.9197108251       32.6980212815
  C        -2.2672853731       15.8962405651       34.0296913505
  H        -2.5053926029       13.7916726864       34.7062246294
  C         4.0830447758        8.9991550029       12.8818192856
  N         3.9212140869        7.6758389501       12.7381757439
  O         3.3235489607        5.7918711143       13.9510804709
  H         5.7193684422        9.5446227595       31.0572691476
  H         5.7153164652        9.2790998610       29.3740418060
  C         4.7796761601        7.7480949122       30.5485470282
  H        -5.9215298755        9.1086902577       25.1044410344
  H        -7.1930074621        8.7429660765       26.2739997374
  C        -7.5087949470       10.5501442471       25.3496075030
  C        -2.5493612920       16.6389261221       35.2686861931
  S         4.6388324313        9.9637371527       11.4943168886
  C         3.9424960696        6.9652212763       11.4566898385
  H         4.0312845753        7.7542651364       31.3180353914
  H         4.1915398967        7.3417597340       29.7032867660
  C         5.9845012960        6.8153659521       30.8981988198
  H        -6.8702976204       11.0572107498       24.5537739272
  H        -7.6923863410       11.2851888528       26.1147132169
  C        -8.8036024510        9.9684431030       24.7571985356
  H        -2.2655549808       17.6561345461       35.2129121817
  C        -3.1335346281       16.3419585801       36.4610341733
  H         4.5583811177        7.5032902206       10.7058354599
  H         4.5381619729        6.0536506799       11.6014721705
  C         2.5404970778        6.6179630100       10.9025520534
  H         5.7619187542        5.7863151097       31.2724091151
  H         6.5076172706        7.2132666658       31.7755859811
  C         6.9460187469        6.7347621265       29.6520954190
  H        -8.9644195986       10.6028880453       23.8518291705
  H        -8.6526304380        9.0411700119       24.2430611990
  C        -9.8730183352        9.8216854393       25.8423741340
  S        -3.6873149369       14.8000256715       36.9622313915
  C        -3.2757150333       17.4146817077       37.4640147845
  H         2.0204521724        7.5355188701       10.4695739006
  H         2.6967742644        5.9030416310       10.0982685909
  H         1.8523473814        6.0336733475       11.6153913289
  H         6.9985920617        5.6766155569       29.2483332412
  H         8.0085362346        7.0234082225       29.8177716332
  H         6.6026232135        7.4541187554       28.9033274109
  H        -9.6138914670        8.9115355643       26.3766243032
  H       -10.8471047653        9.4681336743       25.4597439804
  H        -9.8439383081       10.7266442869       26.5049740702
  C        -4.1525126638       15.5495232898       38.4574349546
  N        -3.9591978809       16.8696764284       38.5586965936
  O        -2.8577777541       18.5516383223       37.3374645316
  S        -4.8913875029       14.6301728339       39.7967979769
  C        -4.1051669144       17.7908351064       39.7385174653
  H        -4.2333457527       18.7951909170       39.3730284975
  H        -4.9942331572       17.4602686453       40.2839756702
  C        -2.8250113636       17.7147477932       40.6135326059
  H        -1.9897551408       17.1589797365       40.0750149123
  H        -2.5500833909       18.7459320475       40.8633422463
  H        -2.9431640036       17.1301410341       41.5865645708
