352
i=
  H         4.7475072250        2.2987548715       12.3180776355
  C         3.7806333863        2.9742826905       12.2768921144
  H         4.1535322552        3.9981187396       12.3953773762
  C         2.8675089371        3.0383919136       11.0148621595
  C         2.9788283982        2.6823219604       13.5187997925
  C         3.6633516473        3.0939324916        9.6789388176
  H         2.2452654382        3.9783570610       11.0942605823
  H         2.1488917277        2.2030678343       11.1060296129
  H         2.6714131389        1.6355643317       13.5380739800
  H         2.1293704622        3.3249391249       13.4552255821
  H         3.4780979830        2.9776842613       14.4649422079
  C         4.5815134476        1.9393198594        9.4414681689
  H         2.8562712826        3.0583943711        8.9596949153
  H         4.2949975916        3.9836899792        9.6472180300
  C         5.4731993348        2.1259634179        8.1643745266
  H         3.8554866736        1.1097640788        9.2840546475
  H         5.2028006549        1.6596813376       10.3543239995
  C         6.7227050033        3.0851120897        8.4095450413
  H         4.8518579194        2.4847295478        7.3707045307
  H         5.7628230958        1.1940616441        7.6237343497
  C         7.9046601820        2.3466487345        9.0318102047
  H         7.0331082930        3.7502287276        7.5894489728
  H         6.3638675475        3.7327360555        9.1966883077
  C         9.2007026134        3.2332792616        9.2744567677
  H         8.1283274935        1.5241543406        8.4402245343
  H         7.4195441332        2.0693319341        9.9162340789
  C         8.7998177495        4.6176784946        9.9011120417
  C         9.7092364002        3.9373221334        8.0121059346
  C        10.2917919360        2.4297820740        9.9886802142
  C         9.1351056059        5.6593109923        9.1128815343
  C         8.3284793883        4.8942904112       11.1555714242
  C         9.6896449887        5.2486333501        7.9328632729
  C        10.2604544971        3.3124976343        6.8823871826
  H         9.9105464376        2.0496383050       11.0024734805
  H        10.3911080206        1.5031084447        9.4300193106
  C        11.5681566829        3.1797847403       10.1294512532
  S         8.7266471639        7.1682414601        9.9146862618
  C         8.2470078497        6.2957119363       11.3532217305
  H         8.0442099888        4.1192804928       11.7876396781
  C        10.2026089625        5.9105339253        6.8165419017
  H        10.3469645778        2.2485683684        6.9845370908
  C        10.7768701159        3.9701656897        5.7348236893
  H        11.2893226398        4.1640750648       10.5890461507
  H        12.0632035157        3.4515525991        9.2543651310
  C        12.5226182124        2.5978476898       11.1506222436
  C         7.8624462494        6.9249562625       12.5971292126
  C        10.6790324329        5.3323446472        5.6081310375
  H        10.1432709153        6.9476780870        6.8712298377
  C        11.2648757998        3.5038139343        4.4933175153
  H        13.5676575996        2.7154534870       10.7926381025
  H        12.5076038009        1.5593964001       11.3026511489
  C        12.3330396769        3.0973035820       12.5314429343
  C         7.8758213669        8.2754678944       12.8576662457
  C         7.3502322216        6.0765929031       13.7134703168
  C        11.1233447520        5.9646257011        4.2765314697
  C        11.3310516033        4.5956193324        3.6219801366
  S        11.4435634471        1.9122135668        3.8557030134
  H        12.9007338688        4.0472729953       12.6179533025
  H        11.3023167573        3.2874529347       12.6075748508
  C        12.8858979800        2.2225707391       13.6548803572
  N         8.1663325701        9.3115609192       11.9603328551
  C         7.5098218728        8.7849851629       14.1501423786
  C         6.9762834169        6.5855370526       14.9673698251
  H         7.0382751197        5.0700616105       13.5019434005
  C        12.4721012982        6.7289304646        4.5193604699
  C         9.9810562277        6.8076175344        3.5992549754
  C        11.5292173432        4.1507005493        2.3002113638
  C        11.6942487062        2.7469507810        2.3174601988
  H        13.9346063697        2.1760556945       13.4937350534
  H        12.3459700679        1.2361531721       13.5794870692
  C        12.4357709067        2.6750547762       15.0537367631
  S         8.1601072878       10.6979150624       12.7778628490
  N         7.5619186065       10.1588643278       14.2069850515
  C         7.1646747080        8.0097907519       15.2809025765
  H         6.4561586507        5.9716456586       15.6549112820
  H        12.1144481048        7.3966979819        5.2996930627
  H        12.7340354543        7.3300201184        3.6430147183
  C        13.6678382655        5.9099577115        5.0939025476
  H         9.8432456775        7.7083181894        4.1537901607
  H        10.3888364212        7.0387253475        2.5954994859
  C         8.6477122476        5.9904732697        3.5527744625
  H        11.5085907911        4.8174920745        1.4970971926
  C        12.1110386379        1.9186409426        1.0809682152
  H        12.5620776085        3.7906296366       15.1869683121
  H        11.3537738691        2.5517307078       15.0595460617
  C        13.1127165308        1.9947422404       16.1947495718
  C         6.9905034031        8.6570984264       16.5121656156
  H        13.2890438497        5.2229933804        5.9097031197
  H        13.9845888990        5.2391370050        4.3127590422
  C        14.9253163777        6.6712862806        5.5437011942
  H         8.0930887758        6.0755050857        4.5332244890
  H         8.7397544416        4.9196707481        3.5309340990
  C         7.8129470457        6.5270595458        2.3336204185
  C        12.1368702059        0.5434026527        0.9849444009
  C        12.3404129857        2.7196570986       -0.0813159846
  H        14.1053662365        2.4224631231       16.3736099324
  H        13.1963962087        0.9129800120       15.9376034411
  C        12.2934830532        2.0475167147       17.4765877525
  H         7.1795595036        9.6634283872       16.5424712530
  C         6.6923394710        8.2015202427       17.6983673918
  H        14.7695764613        7.2502597381        6.4490095987
  H        15.2242800161        7.4594489112        4.8284644880
  C        16.0179246150        5.6924080999        6.0726325489
  H         7.7295957468        7.6402448443        2.3752710655
  H         8.2769116789        6.3950644619        1.3997444472
  C         6.5033566538        5.7841214469        2.0967572253
  N        11.9141585751       -0.3438324133        2.0661522899
  C        12.4568371882       -0.1256668744       -0.2179390814
  C        12.7351769932        2.1129973767       -1.2748802307
  H        12.4748958660        3.7512227030        0.0411350425
  H        12.2209195353        3.1240056794       17.7743843509
  H        12.6525927110        1.4410669852       18.2623948547
  H        11.2563779472        1.7746277584       17.3257701083
  S         6.5065935095        6.5318167554       18.0601049195
  C         6.5710010359        9.1836895415       18.7709130914
  H        15.4866183891        4.9586145913        6.7644429553
  H        16.5548127899        5.1405191929        5.2843313788
  C        17.2069481571        6.3886372460        6.7084738276
  H         6.3525295010        5.0749056636        2.8784864624
  H         6.4075791932        5.3470338366        1.0784000536
  C         5.3064484260        6.6953912168        2.0175032712
  S        11.9551147443       -1.8569986385        1.4701096217
  N        12.4159803855       -1.5295475207       -0.0843884730
  C        12.7861385469        0.5924184615       -1.3788310106
  H        13.1354946482        2.7179793263       -2.1251567911
  C         6.1822018427        7.1996331165       19.6883323201
  N         6.3002064988        8.4804874673       19.8893028662
  O         6.8521161355       10.3938977362       18.7008512329
  H        17.7137178759        7.0395577107        6.0103399979
  H        16.8605492165        7.1449680089        7.4809826400
  C        18.3080224679        5.4657763371        7.3667235203
  H         4.4506261631        6.0418924034        1.9039102101
  H         5.2729552983        7.2312258290        2.9887310832
  C         5.3601611286        7.6480832550        0.8207917510
  C        13.1593305711       -0.1142859345       -2.5347910674
  S         5.9274441716        6.2727960506       21.2144259068
  C         6.2393382448        9.1809897468       21.1606434855
  H        17.7612649943        4.8304415865        8.0833299217
  H        18.6948454358        4.8498104719        6.4798981627
  C        19.3731929273        6.3799926491        7.9867437778
  H         5.0479401335        7.1179267368       -0.0756046708
  H         6.3726992432        8.0377951201        0.6180049697
  C         4.3613123602        8.7653358956        1.0557975368
  H        12.9602433320       -1.1489082042       -2.4775829457
  C        13.6853902527        0.2170301856       -3.7448886998
  H         5.4042545887        8.9022068530       21.8153216424
  H         5.9917508164       10.2268944067       20.9131180779
  C         7.6024620507        9.1815300002       21.9478793969
  H        19.5709297607        6.2068416817        8.9734642928
  H        19.0642483054        7.3420042295        7.8325276205
  C        20.6927585376        6.1846702329        7.1322958465
  H         4.3114010916        9.3831446613        0.1512146228
  H         3.4313919390        8.3205247493        1.1100145444
  C         4.5396884469        9.7326590655        2.2691203503
  S        14.2562969946        1.7974859518       -4.2601950209
  C        13.7888066918       -0.8657662604       -4.6922484384
  H         7.4274026438        9.6806824630       22.9097202639
  H         8.3408262226        9.7638260072       21.3436509726
  H         7.8933891278        8.1596219012       22.3930769895
  H        21.4570766543        6.8236955638        7.4934067217
  H        21.0522607894        5.1848203711        7.1122857380
  H        20.3800580817        6.5088296679        6.1410610691
  H         5.3670455089       10.4150786780        2.0658885635
  H         3.6440728901       10.3447933070        2.5428851085
  H         4.8623381695        9.1199427191        3.1069155657
  C        14.4113786579        0.9740902853       -5.8662904278
  N        14.2270682712       -0.3726168568       -5.8483929779
  O        13.6490303843       -2.0509213444       -4.3759491497
  S        14.9409390637        1.7809845065       -7.3901779788
  C        14.3994805614       -1.2621907464       -7.0121131511
  H        14.4094553196       -2.2928024736       -6.7113420152
  H        15.4312418135       -1.0908202819       -7.4278274575
  C        13.3442599350       -1.2383048623       -8.0979554201
  H        12.3306009474       -1.2333540924       -7.6835852562
  H        13.4777255543       -2.1802298813       -8.5492182303
  H        13.5155578382       -0.4904898754       -8.8783006177
  H        -3.5470222609       14.9953398555       16.4842353052
  C        -3.4501796249       13.9192799843       16.7424029075
  H        -4.3603368775       13.5746437629       17.1744676881
  C        -2.2643846133       13.6966394580       17.6629403629
  C        -3.3736374346       13.1117835132       15.5626061970
  C        -2.8391148689       13.4675719692       19.1106534651
  H        -1.6334601761       12.8567123954       17.2974508291
  H        -1.5940809005       14.5399655969       17.7984758031
  H        -2.8826582575       12.1343499111       15.5494818632
  H        -4.3406484793       12.9215628300       15.1287188638
  H        -2.9826079408       13.6861969595       14.6445925469
  C        -1.7550422867       13.2796642882       20.2579678605
  H        -3.4589641213       12.6048110449       19.0618533562
  H        -3.5611888635       14.2456765822       19.2480244336
  C        -2.3129719840       13.1381985021       21.6427666793
  H        -1.2565931960       12.3173035075       20.1286731742
  H        -0.9115825040       14.0738687560       20.1251280023
  C        -1.2495051525       12.5085442460       22.5772819029
  H        -3.2822299551       12.6280233984       21.4729724956
  H        -2.4594590749       14.1240222621       22.0893590325
  C        -0.0627993715       13.4462810521       22.7946005451
  H        -1.7608181395       12.3955729623       23.5052004324
  H        -0.9918947280       11.4828183142       22.2879663824
  C         1.1666614803       12.8419243159       23.5146101409
  H         0.2926866230       13.7575157441       21.7845051099
  H        -0.3858950341       14.3515361391       23.3206096257
  C         1.5541429862       11.5753401810       22.8379037776
  C         0.6349778859       12.1368043942       24.6985062690
  C         2.2702711174       13.9434704073       23.6977587575
  C         1.2813162502       10.4656434861       23.6071784152
  C         2.1401617596       11.3065651382       21.6072351161
  C         0.7250350335       10.8058883798       24.8101705077
  C         0.1660059385       12.7430657562       25.8304744951
  H         2.4832655423       14.3583339497       22.6922151315
  H         1.8968025581       14.7049013517       24.4321124585
  C         3.5955808053       13.3438068473       24.2538721773
  S         1.7968693981        9.0140553022       22.8496590780
  C         2.1821931803        9.9543330660       21.4715146984
  H         2.2938273434       12.2043951828       21.0438280573
  C         0.4258669606       10.2122336534       26.0023342545
  H         0.1438504743       13.8198292805       25.9118463226
  C         0.0046707575       12.1527106174       27.0985412273
  H         3.9433404733       12.6057672441       23.6443807017
  H         3.4508402489       12.9366387184       25.2086407609
  C         4.7546373442       14.3121702846       24.3013638903
  C         2.6439427625        9.2886206355       20.1999346785
  C        -0.0031840182       10.8078060031       27.1785933223
  H         0.4513848092        9.1872778296       26.0324263634
  C        -0.2948282568       12.5263318810       28.3769052195
  H         5.4436079469       13.8870313297       25.0229924684
  H         4.5087609551       15.2435539992       24.8825287701
  C         5.2148287209       14.5581855523       22.8658360759
  C         2.7367381831        7.8970626220       19.8745007241
  C         3.0042428926       10.1623627619       19.0143950870
  C        -0.3149878085       10.1376565086       28.4402666201
  C        -0.5321370084       11.4507702032       29.1847047621
  S        -0.4855745517       14.0746163795       29.1976382698
  H         5.0264220459       15.5935680845       22.5356400484
  H         4.7122262926       13.9371759453       22.1743596882
  C         6.7121853534       14.1980351638       22.6836347907
  N         2.3976091760        6.8588755648       20.7336871723
  C         3.1119660831        7.3859349837       18.6309833568
  C         3.3623305558        9.6647518940       17.7500251379
  H         3.1095842401       11.2054426720       19.2637366582
  C         0.8271803316        9.4063540242       29.2236233052
  C        -1.6194294996        9.2625476869       28.3130408674
  C        -0.9407468439       11.8624365934       30.5100016745
  C        -0.9288196176       13.2118335148       30.6367108812
  H         7.2297628787       15.0163164205       22.3433984265
  H         7.1245046367       13.9751787789       23.7148491466
  C         6.9665186779       12.9790538963       21.7576678195
  S         2.5122361890        5.4666801718       19.9089957327
  N         3.0067412832        6.0360147459       18.4829440402
  C         3.3604746025        8.2438663562       17.5233563160
  H         3.5293958429       10.3862677326       16.9699092427
  H         1.2592361174        8.6213305286       28.6012669198
  H         0.5633110566        8.8935883565       30.1369749162
  C         1.9309844961       10.3375149877       29.6597102143
  H        -1.3894350660        8.3185149139       27.7829775614
  H        -1.7467561050        8.9189507155       29.3156708221
  C        -2.8473739009        9.9699004235       27.7884393657
  H        -1.0937038839       11.1045352471       31.2613783509
  C        -1.0126701087       13.8355365441       31.9520860491
  H         6.2290199328       12.1806108369       21.8773094470
  H         7.9786869930       12.7024526384       22.0775940577
  C         7.2597689435       13.3954747721       20.2667226547
  C         3.5739650061        7.6417829076       16.2234687955
  H         2.2898993858       11.0075088568       28.9075757726
  H         1.5393311477       10.9237381932       30.5144791973
  C         3.0987543894        9.5256846046       30.1273852079
  H        -2.6206652662       10.7412233562       27.1149009719
  H        -3.2228637433       10.4903966668       28.6504475760
  C        -3.9421543277        8.9367216636       27.3502181722
  C        -1.1657907648       15.2472838485       32.1771351202
  C        -1.3811129721       12.9520569808       33.1403960853
  H         7.8501138739       14.3185712396       20.2052775798
  H         7.9405967964       12.6541372836       19.8815370476
  C         6.0682955736       13.6400718746       19.2958766484
  H         3.5838518066        6.5065781468       16.1694133163
  C         3.8543123684        8.1933354268       15.0130963376
  H         3.5898060441        9.1120678624       29.2347303671
  H         2.7943972275        8.6919834961       30.7843456510
  C         4.0893572308       10.4090742843       30.9070335886
  H        -3.5395713264        8.5036849545       26.4026699403
  H        -3.9684181199        8.1697268994       28.0356826178
  C        -5.3391306856        9.5928896302       27.1299382207
  N        -0.9960716124       16.2798497685       31.2388838154
  C        -1.5177700397       15.7897193164       33.4396715359
  C        -1.6672949892       13.4978064162       34.3994460494
  H        -1.3107725565       11.8699573160       33.1505652136
  H         5.7240562252       12.7047104919       18.8530235274
  H         5.2018503486       14.0623704684       19.7472676773
  H         6.3134760511       14.2401232807       18.4207451263
  S         4.1818375588        9.7713933878       14.5819272152
  C         4.0864685204        7.1702378236       13.9311070151
  H         4.2012315959       11.3658696877       30.4368797794
  H         3.7505375287       10.4878834095       31.9261981836
  C         5.4903972454        9.7477677014       30.8249048969
  H        -5.3300670961       10.4593421612       27.7940611824
  H        -6.1538343701        8.8814340552       27.3982861257
  C        -5.2824277814        9.9968820992       25.6911418524
  S        -1.1692570512       17.7582221179       31.9212771334
  N        -1.5627361269       17.2112857672       33.4215393192
  C        -1.8023730119       15.0389838989       34.5563961866
  H        -1.8952633995       12.8898592762       35.1891316739
  C         4.5144265424        9.1917787072       12.9141030507
  N         4.4053640144        7.8399422637       12.7910315853
  O         3.8227537000        5.9924549522       14.0087163111
  H         6.2563969970       10.4095818633       31.2098954074
  H         5.6609687808        9.7679574083       29.6837343214
  C         5.5951790185        8.3546981854       31.4773049310
  H        -4.4483954483       10.5455752133       25.4001878866
  H        -5.1522144844        9.1336926319       25.0764494961
  C        -6.4113413168       10.9319319266       25.2819451987
  C        -2.1730262453       15.7555246612       35.7028028397
  S         4.7576172812       10.1390268985       11.5093824216
  C         4.4114628468        7.1659372320       11.4772712652
  H         6.3655806887        8.3625096761       32.2605734579
  H         4.7683397906        8.1954418038       32.1256475835
  C         5.9633022604        7.2370643792       30.5102110284
  H        -6.2915664684       11.2587810404       24.2652460733
  H        -6.4994930857       11.8594372525       25.9597906309
  C        -7.8024749605       10.2798477307       25.4134009628
  H        -1.6596801665       16.6926942655       35.7762375935
  C        -2.8497199481       15.4176079061       36.8408156974
  H         5.0524917397        7.7831201368       10.8569765354
  H         4.9274555433        6.2244333362       11.6666245138
  C         3.0107949488        7.0684108197       10.8866531388
  H         5.3154586618        7.2643669332       29.6778966917
  H         5.7695492766        6.2553728106       30.9467045441
  C         7.3995195946        7.3937003056       30.0504439444
  H        -8.3416615656       10.2901472789       24.4810395977
  H        -7.6273713946        9.1967060738       25.6308542064
  C        -8.6988396805       10.8057926467       26.5246999276
  S        -3.6290892651       13.8442602726       37.1838605973
  C        -2.9082662758       16.4290169100       37.9175319364
  H         2.9401905717        6.2402141317       10.1819597531
  H         2.3326270394        6.7010779547       11.6624545235
  H         2.7400007162        8.0116399964       10.5391462536
  H         7.6148848232        6.9530257975       29.1094695238
  H         8.0588265715        6.8394816920       30.7552248271
  H         7.7531535110        8.4420896132       30.0393588130
  H        -9.7996282783       10.5160011668       26.3978057745
  H        -8.6655379343       11.8783578147       26.5676019072
  H        -8.4069285953       10.3997930490       27.4612815449
  C        -3.8333719876       14.5427875458       38.8116279245
  N        -3.4882573981       15.8869364979       38.9927540568
  O        -2.4881916948       17.5662143795       37.7992636565
  S        -4.5291555910       13.5992297661       40.1696994868
  C        -3.7010004151       16.5742484821       40.2243771999
  H        -4.1353952953       17.5469299132       39.9772941235
  H        -4.4779863574       16.0976227720       40.8456061763
  C        -2.3895007538       16.7715597930       40.9657106021
  H        -1.5899505223       17.2197645724       40.3366068917
  H        -2.4418466550       17.4378783164       41.8779798873
  H        -2.0080794411       15.7541906170       41.3150135096
