352
i=
  H         1.6837553394        1.1929820962       12.3650038002
  C         2.6142366178        1.5758656418       12.0381360300
  H         3.2443882507        0.6756956550       11.9643497705
  C         2.5098575155        2.3349389785       10.6589025924
  C         3.1541354269        2.5159870987       13.1476428441
  C         3.9123308370        2.3869035415        9.9774170925
  H         2.0704279686        3.3280981972       10.6891564045
  H         1.9427990259        1.6047276573        9.9705711518
  H         3.4254329334        1.9781221035       14.0634656334
  H         2.3232901467        3.1993280572       13.5274184042
  H         4.0293351934        3.0795325934       12.7234856040
  C         4.3960051139        1.1408801930        9.3917689141
  H         3.9650103840        3.1236697886        9.2057344895
  H         4.5964841789        2.7589226165       10.7356550237
  C         5.3809727248        1.4352916949        8.2705911231
  H         3.5990432150        0.6584136121        8.9426737748
  H         4.8686061689        0.4987926693       10.1802551197
  C         6.5683849293        2.3787328353        8.6645221616
  H         4.8315631925        1.9819525952        7.4993832780
  H         5.7645590243        0.5005321726        7.9157560539
  C         7.8327254461        1.7281437975        9.1349910668
  H         6.7572483413        3.0327013082        7.8576870794
  H         6.2135067705        3.0205387931        9.4681268702
  C         9.0213210908        2.7266493384        9.3439138916
  H         8.0914280063        1.0258248167        8.3847816974
  H         7.7215235096        1.2426747002       10.0607854144
  C         8.6032785091        3.9896385053       10.0546717662
  C         9.3973943691        3.5243101277        8.1381663396
  C        10.2295758116        2.1020094680       10.0823356776
  C         8.8480811225        5.1246919571        9.3213751047
  C         8.1296174454        4.3093039110       11.3241740037
  C         9.2869829321        4.8492510066        8.0561042914
  C         9.9008519819        2.9829899970        6.9535358045
  H         9.8655981176        1.4261620994       10.7849918825
  H        10.8649341588        1.4160953294        9.4660061357
  C        11.2135496992        3.0975429685       10.7960796831
  S         8.4935947424        6.6254922437       10.1143127554
  C         7.9984443834        5.6850755811       11.4959135329
  H         7.9657353356        3.4845724985       12.0012374810
  C         9.6704055524        5.5256659857        6.9353960719
  H         9.8774802404        1.8456443547        6.9244479947
  C        10.3517890455        3.6848524769        5.8476469618
  H        10.6584848201        3.7274499102       11.6238404866
  H        11.4613505258        3.8005525503       10.0311544919
  C        12.4926099687        2.4587047187       11.3517148022
  C         7.5802617268        6.4239106661       12.7804522458
  C        10.3447328852        5.0339181756        5.8242807772
  H         9.4940430444        6.5470512587        7.0399718892
  C        10.7864628959        3.3749372980        4.6013393185
  H        13.1487305621        3.3010167410       11.3626017654
  H        12.7621285713        1.6587257304       10.6893472465
  C        12.3328446096        1.9010244791       12.7892814013
  C         7.5944492032        7.8355201078       12.9583213363
  C         7.3390987496        5.5336902313       13.9720606306
  C        10.8369372671        5.8327169176        4.6164642375
  C        11.0129492004        4.5324963225        3.8458855557
  S        11.0733799184        1.8635013608        3.8435771212
  H        11.5291731551        1.2397203756       12.7410109411
  H        13.2075275615        1.2621481755       13.0503560991
  C        12.0657723419        2.8696984861       13.9213300538
  N         7.9864319211        8.8173772996       12.0182577242
  C         7.3569287935        8.3805497664       14.2303240026
  C         6.9854184673        6.0901744779       15.1679264195
  H         7.0762103205        4.4961581419       13.8092308447
  C        12.1167916548        6.5859045524        4.8996860583
  C         9.7444588762        6.8056739880        4.0375731467
  C        11.4231533790        4.1716836611        2.5429020790
  C        11.4029127672        2.8063321593        2.3600779592
  H        11.2088045469        3.5376507313       13.6090473366
  H        12.7776179249        3.6342563461       14.1240272711
  C        11.9166006869        2.2043221398       15.2232548320
  S         7.7459959683       10.2377212463       12.7036469389
  N         7.3966231516        9.7909581852       14.2339980088
  C         7.0854894427        7.5221248128       15.3513978908
  H         6.8256652822        5.5059532406       16.0447959807
  H        11.8536106259        7.3404016505        5.6576264621
  H        12.2257010644        7.1073978363        3.9850970028
  C        13.3003700854        5.7383691676        5.3389797729
  H         9.2745694745        7.4063966379        4.7819986377
  H        10.2074307587        7.3495691945        3.1909350116
  C         8.5279303586        6.1287432340        3.4537048536
  H        11.6261965346        4.9745827083        1.8637809414
  C        11.7729279695        2.1189318993        1.1162505899
  H        11.1572334148        2.6958638708       15.8395070417
  H        11.4671849732        1.2680201137       14.8883350909
  C        13.2337339491        2.0797569315       16.0278085159
  C         6.8892853417        8.2514784171       16.5821605047
  H        13.0936583403        5.1430782734        6.1827331095
  H        13.4945002365        5.0633026479        4.6015708120
  C        14.4507881563        6.6468707642        5.6471808296
  H         7.6978566001        6.5241725450        4.0334779920
  H         8.5086708373        5.0567949949        3.5730876605
  C         8.3450517221        6.5889519337        2.0246538324
  C        11.9206335328        0.6858511986        1.0261309033
  C        11.8593930563        2.8188980465       -0.1728766092
  H        14.0436759956        2.4707964674       15.3936222160
  H        13.4684138718        1.0300501773       16.1222372747
  C        13.4016212929        2.7157652680       17.4834917163
  H         7.2224359288        9.3007875531       16.5382912401
  C         6.5536698010        7.8318679873       17.8533759261
  H        14.1646744695        7.5252063740        6.2599507850
  H        14.7531634951        7.0659001070        4.7258024797
  C        15.5226905890        5.7998803983        6.2709554823
  H         8.2709489153        7.6787934160        1.9732996320
  H         9.2086904152        6.2704100600        1.4445565587
  C         7.2235067576        5.9360103506        1.2433647875
  N        11.7870623477       -0.2724060366        2.0248249031
  C        12.2388505240        0.1087410822       -0.1808655707
  C        12.2765779420        2.2074175210       -1.3943325490
  H        11.4099215351        3.7438619301       -0.2437440828
  H        13.0909376787        3.7579593727       17.4083231763
  H        14.3787293324        2.5728759380       17.9172845277
  H        12.6599248131        2.2812299188       18.2527233428
  S         6.0837814802        6.2474217916       18.3304696767
  C         6.5407725453        8.9133422480       18.9361325306
  H        15.7357472630        6.0274841114        7.3269748941
  H        15.1486659561        4.6919698979        6.2912663513
  C        16.8760679654        5.7440126974        5.5890654028
  H         7.6261914407        4.9498960594        1.3040661845
  H         7.1789854461        6.3020189287        0.1905238319
  C         5.8770467480        6.0697970689        1.9670047901
  S        11.9013958457       -1.7484348864        1.3526319501
  N        12.3777592981       -1.2467266930       -0.1261622183
  C        12.5018091362        0.7651639816       -1.4349618467
  H        12.2671884474        2.7713024820       -2.2840147720
  C         5.8855895593        6.9564537380       19.9674090082
  N         6.1735951548        8.3204983596       20.0545541001
  O         6.8593058776       10.0957253152       18.6999725258
  H        16.8890425118        5.3370483486        4.5540753330
  H        17.2991608384        6.7596419547        5.4436600505
  C        17.8872793471        4.8508727276        6.4513176313
  H         5.2444831788        5.6415392351        1.2301971052
  H         5.8220881637        5.4596619594        2.8919054779
  C         5.5340374576        7.5780118479        2.2122419379
  C        12.7827161203       -0.0902186877       -2.6338787181
  S         5.4524512907        6.0971992406       21.5200418841
  C         6.2204955964        9.0428941396       21.3347509549
  H        17.2641587185        4.1265845816        6.8138358958
  H        18.6890804073        4.3782506496        5.9688143985
  C        18.4061415827        5.4940921794        7.6558801847
  H         6.1935177655        8.1515713471        1.6499460912
  H         5.6970140230        7.8402482312        3.2269709262
  C         4.0842489678        7.9785559142        1.8945273553
  H        12.4889490865       -1.0915908518       -2.4545910362
  C        13.2867340293        0.1408750610       -3.8950822368
  H         5.4292048269        8.6165240823       22.0115120919
  H         5.8005694790       10.0624436237       21.1438814469
  C         7.4810444805        8.9502996310       22.2151829258
  H        18.2888711735        4.7147579510        8.3776995595
  H        17.8474120191        6.3824529818        7.9662736498
  C        19.8420995582        5.8602810962        7.6411499123
  H         3.8893239337        7.8431509294        0.8447635797
  H         3.3383082717        7.4204672839        2.5122935220
  C         3.9334341151        9.4988647361        2.0650209243
  S        13.8772347285        1.6283200429       -4.5067410687
  C        13.3438253599       -0.9371627631       -4.8762513609
  H         8.0407044824        8.0309771465       21.9625503910
  H         7.0255337428        8.8532674339       23.2545490564
  H         8.1103713405        9.8668395409       22.1515260016
  H        20.0145882864        6.3325627617        8.6411907938
  H        20.4618393732        4.9764077214        7.3889311566
  H        20.0668777616        6.6330085449        6.9608952631
  H         4.4187859248       10.0234050585        1.2813956938
  H         2.8321496350        9.6827529130        2.0931641548
  H         4.2797845900        9.7388544250        3.0425291891
  C        14.4802377581        0.7390049687       -5.8710966325
  N        14.0903423375       -0.5655115069       -5.9526397426
  O        13.0505152478       -2.1122723695       -4.6753446221
  S        15.3726128256        1.3548201474       -7.3068744122
  C        14.1308701695       -1.4280278186       -7.1266741897
  H        14.1168732976       -2.4682208327       -6.7141715304
  H        15.1289341016       -1.3120420056       -7.6682992312
  C        12.9050808990       -1.0256095930       -7.9835261859
  H        13.1095030803       -1.0814782703       -9.0611424317
  H        12.5166115525       -0.0074168660       -7.8391383118
  H        12.1452810070       -1.7585159445       -7.7471766826
  H        -2.6195206366       15.1158295491       16.4926759968
  C        -2.7036635863       14.0050899693       16.6490922736
  H        -3.7093954461       13.9630716259       16.7897946029
  C        -1.8378848350       13.6064409823       17.8212452872
  C        -2.5280643435       13.0877389755       15.4262907328
  C        -2.5657145949       13.2747733190       19.1425938066
  H        -1.3055192525       12.6657052435       17.5300055555
  H        -1.0581121440       14.3606114096       17.8689681073
  H        -1.7944784974       13.4911396035       14.7886079605
  H        -2.1277921632       12.0922105481       15.7929951557
  H        -3.5072784077       12.8757843356       15.0400945922
  C        -1.5455167484       13.3460049729       20.2785552509
  H        -3.0786710302       12.3075132812       19.0481613315
  H        -3.3697861018       13.9452934646       19.3824137672
  C        -2.0767231485       13.2649831189       21.6656471352
  H        -0.7520309723       12.5693516154       20.2012712637
  H        -1.0168262303       14.2874325941       20.0410510814
  C        -1.0189941039       12.5312534615       22.6115723883
  H        -2.9732272091       12.6326348931       21.6733031137
  H        -2.4509207147       14.1594688144       22.1172192448
  C         0.2405486023       13.4036638819       22.7953575322
  H        -1.4359644097       12.2650166979       23.5622962166
  H        -0.7448983286       11.5962000126       22.0752778705
  C         1.4054496329       12.7332767498       23.5502527727
  H         0.5700927763       13.6823727257       21.7911514811
  H        -0.0297035671       14.4116060186       23.0931326940
  C         1.8629692074       11.4276574337       22.8147636418
  C         0.9313072407       11.9419002971       24.6793077120
  C         2.5399426593       13.6990258587       23.9050998673
  C         1.6471814341       10.2999444693       23.5953058259
  C         2.2865049931       11.0812637541       21.4993968057
  C         1.0576117406       10.6270621911       24.8249007846
  C         0.4594364581       12.5497369445       25.8403851556
  H         2.8249955521       14.2788026989       23.0143464435
  H         2.2216917032       14.3765957919       24.7108608406
  C         3.8493346105       13.0484886423       24.3431632585
  S         2.1119886179        8.8119973879       22.8790436791
  C         2.6042127957        9.6877004504       21.3936676393
  H         2.4102518861       11.8376793678       20.7182262043
  C         0.6945730751        9.9834925183       26.0024024085
  H         0.3632535553       13.6205071025       25.8142133256
  C         0.0688326638       11.9608993661       26.9766668170
  H         4.2070218767       12.5258834739       23.4668918109
  H         3.6261419258       12.3533414181       25.1054915529
  C         4.9331586591       14.1678544004       24.6811919352
  C         2.9484039469        9.0793162120       20.0691454986
  C         0.1199700176       10.6172390450       27.0763848667
  H         0.7954685880        8.9226444674       26.0974056767
  C        -0.3667015335       12.4467139008       28.1968378073
  H         5.7037987926       13.8670909704       25.3900423694
  H         4.4876135416       14.7995578620       25.4449779165
  C         5.5743306973       14.9106956290       23.4395637866
  C         2.7426814095        7.7332319851       19.7291023278
  C         3.3881601813        9.9427764852       18.9402230442
  C        -0.5029237818       10.0495420984       28.3102405511
  C        -0.7794314663       11.3758869442       28.9854987567
  S        -0.6193204228       13.9656443569       28.8134185324
  H         6.0597645548       15.7598848751       23.8192061210
  H         4.6834626518       15.2248962100       22.7995303970
  C         6.4584303316       13.9810409706       22.6323676720
  N         2.3598983205        6.7964507055       20.6057761322
  C         2.8995233949        7.2591354514       18.4487447411
  C         3.5402106161        9.5167791348       17.6472474173
  H         3.6219212337       10.9875022814       19.2230730948
  C         0.4081321547        9.1084043149       29.2177166073
  C        -1.8281087888        9.3294210523       28.1118336551
  C        -1.1838447794       11.8849671927       30.2451775087
  C        -1.1827495488       13.2553621345       30.3303725489
  H         7.3105620119       14.5841831823       22.2915418121
  H         6.8086240510       13.1234938150       23.2060067031
  C         5.6630173257       13.5842930050       21.4122579159
  S         2.3837966946        5.3131149602       19.8851849044
  N         2.7280951241        5.8403345857       18.3508145755
  C         3.2017479845        8.1324970032       17.2811859842
  H         3.8799316301       10.1677087809       16.9046450690
  H         0.4640095758        8.1079665273       28.7686078281
  H        -0.0807628725        9.0673572739       30.2117858568
  C         1.7668619362        9.7530658424       29.4345694140
  H        -1.7626443220        8.6871017749       27.2229865241
  H        -1.9819891518        8.6520516214       29.0104730417
  C        -3.1175221423       10.1943752466       28.1094102484
  H        -1.5647267893       11.2207650274       31.0074051282
  C        -1.3847296340       14.0536290191       31.5527807142
  H         5.2685504926       14.5209985354       20.9046109894
  H         4.7858355453       12.9582581627       21.6574784610
  C         6.5859797238       12.8299297562       20.4547892284
  C         3.4866402261        7.4234562770       16.0509267802
  H         2.4068505691        9.5634486245       28.5666567290
  H         1.7166196987       10.7900440814       29.4925687771
  C         2.4591091632        9.1204452246       30.5834781960
  H        -3.1516601229       10.9775907667       27.3548418473
  H        -3.3449468652       10.6335349243       29.0740278296
  C        -4.3215422704        9.3212967302       27.9415547535
  C        -1.5312359614       15.4671973029       31.6366094722
  C        -1.6528733372       13.3367965483       32.7694344374
  H         7.4344505067       12.4422515615       21.0260474997
  H         6.1172506836       11.8583335643       20.1219090809
  C         6.9657473864       13.8257902147       19.3946495850
  H         3.2774498269        6.4284371350       16.1227163918
  C         3.7396698993        7.7307035313       14.7363242952
  H         2.6169261667        8.1394936634       30.2965098070
  H         1.7875304885        9.0940497279       31.4062491286
  C         3.7287194910        9.9076311663       30.9603666542
  H        -4.0347158171        8.5411274598       27.2535160922
  H        -4.5512953834        8.8800733145       28.8787467914
  C        -5.5165276914       10.0678077523       27.3901604397
  N        -1.0916692933       16.3281827668       30.6653854628
  C        -1.8845478750       16.1037273885       32.8361635906
  C        -2.0328009257       13.9755452612       33.9692502022
  H        -1.4697897188       12.2131277408       32.8654292347
  H         6.1976214932       14.2583494893       18.7265331733
  H         7.4281949947       14.7144084856       19.8793928889
  H         7.7028148064       13.3223872957       18.7220704529
  S         4.0076581081        9.3243654813       14.2205807242
  C         3.7642237944        6.6806468144       13.6906696656
  H         3.7807514898       10.8260355951       30.4465200823
  H         3.6937922998       10.1956983124       32.0118855681
  C         5.0148975741        9.1348736629       30.7833585931
  H        -5.4870809236       10.8994774661       27.9884646945
  H        -6.4966908638        9.6322618544       27.5903385495
  C        -5.4392516712       10.4464728799       25.9238747035
  S        -1.2781638276       17.8028830338       31.3115526017
  N        -1.8460612142       17.5088873365       32.7390669593
  C        -2.2699295205       15.4235117965       33.9903246778
  H        -2.2497872401       13.3653274151       34.8489306756
  C         4.1910518947        8.6605194712       12.5981318691
  N         3.9774333902        7.2953243358       12.5144130538
  O         3.4602809985        5.4934323352       13.8372873672
  H         5.8352707768        9.7030945871       31.2204480334
  H         5.2919708999        9.1293686262       29.7374189580
  C         4.9709351015        7.6936571083       31.3671528291
  H        -4.6388298028       11.2800838474       25.8703587097
  H        -5.0308736363        9.6494984710       25.3524427241
  C        -6.7503715923       11.0422622397       25.4502401787
  C        -2.6035247749       16.1774978594       35.1088569360
  S         4.6468405261        9.5094884383       11.1755654627
  C         4.0456129145        6.5106226814       11.3106280879
  H         5.8040127336        7.7212423628       32.0386877389
  H         4.0982340209        7.4305019076       31.9490828825
  C         5.2512116376        6.4749806708       30.4978344892
  H        -6.5580411884       11.7270889507       24.5768495670
  H        -7.0581705181       11.7944747060       26.2185821879
  C        -7.9079471325       10.0970192201       25.1017181698
  H        -2.6273390796       17.2081620169       34.9421988534
  C        -2.9958631877       15.8459177982       36.3783962341
  H         4.6976285807        6.9193737341       10.5298234117
  H         4.4583980553        5.4828679100       11.3816490308
  C         2.5871080558        6.4367115501       10.7804149899
  H         4.6884506170        6.5105115427       29.6367203265
  H         4.8214921135        5.5781325365       30.9182109939
  C         6.7653128464        6.3079734728       30.3829299459
  H        -8.2635468650       10.3811748498       24.1552259424
  H        -7.5682733294        9.0741391541       25.0012823183
  C        -9.0524110606       10.1278157779       26.0331673535
  S        -3.4571954682       14.2792922627       36.9923456779
  C        -3.1623715673       17.0099811028       37.3757419811
  H         2.4862085289        6.9060629301        9.8090949917
  H         2.2903746892        5.4402445916       10.6723965698
  H         1.8851345331        6.9669463815       11.4191874117
  H         7.1461829335        5.4264559100       29.7677099483
  H         7.1410386169        6.0174241836       31.3614431870
  H         7.2619111603        7.2138952237       30.0644051140
  H        -9.1664830039       11.1529453478       26.2812317324
  H        -8.8143040713        9.4691135652       26.8624905435
  H        -9.9095967715        9.7016892728       25.4968827483
  C        -4.0211972894       15.1295626985       38.4274473738
  N        -3.8606458464       16.4450537920       38.4406793256
  O        -2.9912539295       18.1928281430       37.0650749252
  S        -4.5293495738       14.3100706831       39.8827695548
  C        -4.2041861412       17.2630216395       39.5938287895
  H        -4.1878708742       18.2682255943       39.1924518360
  H        -5.2216349031       17.1565881958       40.0463123392
  C        -3.0568486632       17.3584031495       40.5360870768
  H        -3.0271372470       18.3160017073       40.9925794179
  H        -3.1065023362       16.6153627758       41.3227523584
  H        -2.0685819689       17.2231424561       40.0405087654
