352
i=
  H         2.3277373046        3.1905622094       12.5554864543
  C         3.0873491040        2.4515639287       12.7576894543
  H         2.5777877389        1.5371230999       12.4959991543
  C         4.2301996397        2.3174882952       11.7086849399
  C         3.4673123562        2.4353991813       14.2415910596
  C         3.7102254747        2.2653717250       10.1918005870
  H         4.8268965842        1.4752532776       12.0608588250
  H         4.8513337389        3.1815030482       11.8488302358
  H         3.1203671573        3.3051937991       14.7727725936
  H         4.5455318839        2.3752100080       14.2866480798
  H         3.0545175938        1.6000941126       14.7301159834
  C         4.5621204496        1.3089151454        9.3479431833
  H         2.7048575880        1.8416443369       10.2103005082
  H         3.6069359410        3.2263174555        9.7373233887
  C         5.2196509270        1.8384550125        8.1286595357
  H         3.8994925018        0.4710566842        9.0108535061
  H         5.3459880543        0.7830458166        9.8500546406
  C         6.4013981087        2.7802998776        8.4686897700
  H         4.3948751567        2.4108390982        7.5853917244
  H         5.4256049079        1.0432840672        7.3860441244
  C         7.6332568739        2.0514698136        8.9910427260
  H         6.8511670276        3.3486600543        7.5841788734
  H         6.0607849505        3.6247712558        9.0640159926
  C         8.9049588675        2.9791698359        9.2731354790
  H         7.8968975995        1.2488282402        8.2789357700
  H         7.3802115145        1.4634433556        9.9204785897
  C         8.5287808250        4.2990530702       10.0324091001
  C         9.2861830065        3.6760575327        8.0821351445
  C        10.1756705931        2.2848555352        9.8348864679
  C         8.7255357721        5.4077114986        9.2258680655
  C         8.0599437224        4.7050392958       11.2824742785
  C         9.3461187034        5.0212336293        8.0719168753
  C         9.7560382330        3.0994783136        6.9032200546
  H         9.9273095318        1.8654126482       10.7506457256
  H        10.4284379133        1.3809306932        9.2008518920
  C        11.4008310036        3.1836885116       10.1443945468
  S         8.2995813539        6.8841375286        9.9307839944
  C         7.8640466223        6.0269085834       11.3585998238
  H         8.2306129832        4.0067797215       12.0562222975
  C         9.7546548294        5.7151375949        6.9343149417
  H         9.7883433410        2.0639207811        6.9691438527
  C        10.1911037393        3.8013329674        5.7937462065
  H        11.2349580223        4.1817278382       10.5509956726
  H        11.9061598353        3.2670054384        9.1539814321
  C        12.4363591116        2.3761984647       11.0485921178
  C         7.5762096745        6.6946163712       12.6240337869
  C        10.2214122105        5.1206934306        5.7345289633
  H         9.7379488525        6.7961626035        6.8518399174
  C        10.7314108058        3.3953285406        4.5737730733
  H        13.3575707005        2.8260889345       10.8531898023
  H        12.6748096317        1.3472050378       10.6673501560
  C        11.9394996885        2.4434083047       12.4885252457
  C         7.6522443323        8.0560953500       12.9419874809
  C         7.3395324118        5.7877923357       13.7549262291
  C        10.6585405431        5.7676746164        4.4301357378
  C        10.9510100065        4.4716081497        3.7242107488
  S        10.9318314188        1.8019201687        3.9471112287
  H        11.3354135040        3.3766111831       12.6427696222
  H        11.2830373938        1.5491620608       12.7715665361
  C        13.0159798438        2.2732591231       13.5314456253
  N         7.7691860379        9.0863190424       11.9588479350
  C         7.4380972038        8.6169006189       14.1972269144
  C         7.1617773249        6.3363721212       15.0377238553
  H         7.2912297128        4.7421446715       13.7043428496
  C        11.9363660776        6.6514839729        4.6971422883
  C         9.4132311960        6.5194559648        3.8529594390
  C        11.4029619678        4.0274482056        2.4605042838
  C        11.4614957498        2.6163743389        2.4153240617
  H        13.6469944216        3.2251622049       13.4927689588
  H        13.6586282696        1.4507625286       13.2845745033
  C        12.4417090250        2.1026656299       14.8922588717
  S         7.8734372587       10.5408129377       12.7107205913
  N         7.5107098469       10.0211217830       14.2365076551
  C         7.1857943782        7.7889044957       15.3006366857
  H         6.9033885467        5.6805892843       15.8190672015
  H        11.8515790405        7.2476608827        5.6024961666
  H        12.1334616951        7.3486725993        3.8981166902
  C        13.2396824290        5.7905645235        5.0406299459
  H         9.0861332079        7.1717417495        4.6774397272
  H         9.7579384486        7.1491614768        3.0473785008
  C         8.2236466523        5.6842966281        3.4813623654
  H        11.7059541550        4.7278113730        1.7404319324
  C        11.8377685878        1.7961694839        1.2518820871
  H        11.8057141743        2.9383004954       15.0183604981
  H        11.6969404425        1.3568911072       15.0100783636
  C        13.4525822566        2.0815576810       16.0653381366
  C         6.9483076263        8.4211106956       16.5415055193
  H        13.0674850836        5.1282883499        5.8981349937
  H        13.3879773286        5.1084422615        4.1868508065
  C        14.4714876441        6.7704295074        5.1210988521
  H         7.9018059224        5.0011258312        4.2967034464
  H         8.6006284025        5.0787248919        2.6539294410
  C         7.1332037112        6.6208858592        2.9444753057
  C        11.7580022602        0.3708363744        1.0853432101
  C        12.2669634246        2.4964552529        0.0124913442
  H        14.3727034278        2.6368259510       15.7595157698
  H        13.8762995246        1.0702407163       16.2110439888
  C        13.0368216999        2.7578066917       17.3052307132
  H         6.9104673089        9.4532658906       16.5087553890
  C         6.6475334479        7.9001184381       17.7595893866
  H        14.1519054337        7.6241202135        5.7273207677
  H        14.6512221776        7.1012913356        4.0703037401
  C        15.6092342051        5.8389632373        5.7010416319
  H         6.7786632187        7.2220236496        3.7675212613
  H         7.6467768116        7.3342856467        2.2148881720
  C         5.9372846667        5.7982511604        2.3239962180
  N        11.4413840095       -0.5219831914        2.0940927590
  C        12.0560035548       -0.3070568137       -0.0588371136
  C        12.4075770890        1.8187729199       -1.2037242071
  H        12.3928613450        3.5546798209       -0.0090470266
  H        12.2660844433        3.4732252906       17.1482688365
  H        13.8621635947        3.0625839319       17.9427295154
  H        12.6753998264        1.9553632578       17.9488006997
  S         6.4136888605        6.2972647517       18.2610801947
  C         6.4011532738        8.8206467825       18.8534512923
  H        15.2616778945        4.9220520008        6.0635940680
  H        16.1160536966        5.4998964375        4.8727665076
  C        16.5538400502        6.4982386806        6.7735414433
  H         5.5841488412        5.0521521523        2.9956474578
  H         6.3013542122        5.2225059548        1.4427058721
  C         4.8064777833        6.7300033569        1.8026141398
  S        11.5389465754       -2.0804537212        1.6385696563
  N        11.9332253157       -1.6906624889        0.0912040628
  C        12.3887732429        0.2896742598       -1.2800446158
  H        12.4807511675        2.4184557332       -2.0737824362
  C         6.1020113896        6.9414843928       19.9742118570
  N         6.0949373844        8.2441539358       20.0170516966
  O         6.5989382522       10.0453400851       18.7419496821
  H        16.8283068573        7.5287505414        6.3971568661
  H        16.0970020525        6.6504077289        7.7848051406
  C        17.7759882541        5.6117230898        7.0510648651
  H         4.0349947416        5.9589150577        1.5066657081
  H         4.4549892709        7.3549854009        2.6070536657
  C         5.0286203016        7.5186843805        0.5516201868
  C        12.7416389237       -0.6353077760       -2.3712396211
  S         5.4481818938        6.1147468559       21.3455618233
  C         6.1287930929        9.0730501984       21.2752540464
  H        17.5538202262        5.0044992632        7.8674947913
  H        17.9574773644        4.8986313801        6.3026600759
  C        19.0010573495        6.3384044302        7.2616954464
  H         4.9502189848        6.7834813009       -0.2333802597
  H         6.0260748579        7.7963669275        0.5698309772
  C         4.1430718057        8.8637352027        0.3594987442
  H        12.3792960898       -1.5846530941       -2.2036299786
  C        13.2141856605       -0.3932038086       -3.6607231910
  H         5.6685003650        8.6467350979       22.2115162185
  H         5.5577417786       10.0562309039       21.0643290637
  C         7.6214677324        9.2860395630       21.5986763229
  H        19.5403574278        5.9571095658        8.1196843478
  H        18.7846032885        7.4021237739        7.5307692742
  C        19.9443323133        6.1746154487        6.0266542566
  H         4.2896302429        9.1196022632       -0.7339020799
  H         3.0863241060        8.6958853728        0.5624413660
  C         4.7731325723        9.9934945551        1.1231995367
  S        13.8242089845        1.1217817772       -4.1322506640
  C        13.2075661984       -1.4617189909       -4.6746207983
  H         8.2888916292        9.4701755139       20.7520482588
  H         8.0371308266        8.4773933219       22.2405727765
  H         7.7397093705       10.2561322195       22.1007893278
  H        19.3731166700        6.3949007747        5.1783119757
  H        20.7630083049        6.8633265277        6.1555313823
  H        20.3513589849        5.1650996154        5.9445013753
  H         5.8725802977       10.0452725532        0.9726787858
  H         4.3632132461       10.8791923678        0.7192775196
  H         4.4968660845        9.9467471600        2.1766641513
  C        13.9481093230        0.3307287762       -5.7841813226
  N        13.7841587110       -1.0011444621       -5.8170279876
  O        12.8480270996       -2.6179117789       -4.4351435362
  S        14.6236656402        1.2085886599       -7.2612371363
  C        13.9264688484       -1.6908630264       -7.0737961867
  H        14.0357411622       -2.7088855522       -6.8056947061
  H        14.9028159595       -1.4607513323       -7.6274918646
  C        12.8047202664       -1.5785251567       -8.0459789999
  H        12.5231145599       -2.5929491502       -8.3164183931
  H        13.1287212389       -0.9443450925       -8.8255423462
  H        11.9189585765       -1.0723163424       -7.6899762485
  H        -2.2435481213       15.1042494683       15.6365746267
  C        -2.7676172218       14.2401660515       15.9143135140
  H        -3.7588169837       14.5132031724       16.1899086447
  C        -1.9151924506       13.6784563738       17.0824455048
  C        -3.0038721514       13.3463585966       14.7007495094
  C        -2.4874619302       13.4374692674       18.5093322944
  H        -1.5022596218       12.7909344606       16.6554223223
  H        -1.0477706381       14.3425048174       17.3429553749
  H        -2.8947753317       14.0879467632       13.8828627342
  H        -2.2645138422       12.5479067466       14.5951427504
  H        -4.0338768653       12.9574724174       14.6580740374
  C        -2.1480061342       14.4040335998       19.5841908475
  H        -2.2487880576       12.4231979135       18.9258869414
  H        -3.6235530075       13.3567172774       18.3628263148
  C        -2.4249987633       14.0326302810       20.9946587813
  H        -1.1948458391       14.7393697571       19.4947181556
  H        -2.6473926167       15.3851465287       19.2908575074
  C        -1.2296502404       13.3283324584       21.6874156780
  H        -3.3235054088       13.4250488566       21.0266469740
  H        -2.6610334833       14.9421734578       21.5490006228
  C        -0.1044807651       14.2670246007       22.0957332210
  H        -1.6445428587       12.7693865160       22.4991910290
  H        -0.9955661471       12.6118722523       20.9166014246
  C         1.0767603445       13.6200325445       22.9560635003
  H         0.4430123001       14.6850487103       21.2345113863
  H        -0.5435165326       15.1149102910       22.5631787872
  C         1.3409982032       12.2516555331       22.2438420994
  C         0.6493179178       12.8619599565       24.1840757751
  C         2.3180891433       14.4917862649       23.1445502956
  C         1.1306027516       11.1405704889       23.0606283741
  C         1.7931761171       11.8128128061       20.9500052841
  C         0.6867861433       11.5342818966       24.2800966908
  C         0.2041445898       13.4501665306       25.3960441258
  H         2.5290203797       14.8790770047       22.1638244978
  H         2.0890832836       15.2970099057       23.8153924065
  C         3.5471968959       13.7367986953       23.7356665891
  S         1.5196099325        9.6499424897       22.3425795754
  C         2.1662498402       10.5025553339       20.9693257376
  H         2.0657919807       12.5924782991       20.2376350422
  C         0.4327202181       10.8393514275       25.4370143374
  H         0.2025909857       14.5039986835       25.3761421067
  C        -0.0296769328       12.7820573918       26.6033326362
  H         3.5726576529       12.8032288537       23.1414654242
  H         3.2459270345       13.4224715740       24.7709046616
  C         4.8487667928       14.5245560730       23.9095507586
  C         2.7273422388        9.8706631318       19.6791868512
  C        -0.0593596752       11.4338712126       26.6337300809
  H         0.5094296929        9.8038686190       25.4480287443
  C        -0.4437080903       13.1198475912       27.8835748124
  H         5.3765263746       14.0493454666       24.7649807143
  H         4.5915727281       15.5876975491       24.2527287545
  C         5.7860843289       14.6765028080       22.6362126399
  C         2.6937644200        8.4991792117       19.4638272608
  C         3.2336536489       10.7032224025       18.5964801089
  C        -0.3690273816       10.6757512977       27.9092403902
  C        -0.5529958990       12.0024027035       28.7389498907
  S        -0.8453842163       14.6143756525       28.6460563852
  H         6.6273284563       15.2509762955       22.8452638792
  H         5.1801130358       15.2145535707       21.9337136296
  C         6.1528855317       13.3693502098       21.9880409063
  N         2.1949605496        7.5787392180       20.3725403378
  C         3.0593765794        7.9217976354       18.2600716572
  C         3.4260313530       10.0975507787       17.3854049641
  H         3.5437215605       11.7225877735       18.7616006292
  C         0.7422316632        9.7967516716       28.5209838854
  C        -1.7036912898        9.8713084960       27.7738217545
  C        -0.9866069334       12.3873145717       30.0209106707
  C        -1.1225975525       13.7844053377       30.1276491902
  H         7.1782695017       13.2822548868       22.1383758116
  H         5.6198693605       12.6146097787       22.4915927009
  C         5.8348476389       13.2376534197       20.4902099186
  S         2.2601982223        6.0820445141       19.7308866621
  N         2.9640931434        6.5262415474       18.2966760866
  C         3.3601691186        8.6632003765       17.1256448656
  H         3.8421276133       10.7138880524       16.5931301930
  H         0.9439933734        9.1122099203       27.7283095429
  H         0.3494262462        9.0974561975       29.2210056950
  C         1.9815355508       10.5637192097       28.9605959443
  H        -1.4329392174        9.1391759634       27.0401884002
  H        -1.9076730893        9.2655965774       28.6934773835
  C        -2.8978492361       10.6201126895       27.2349131761
  H        -1.3020066602       11.6448597563       30.7201765969
  C        -1.4590358076       14.4669098408       31.4206363498
  H         5.1180715207       13.9652356706       20.0245888603
  H         5.3438863548       12.2775143205       20.3507542687
  C         7.1290710862       13.2175138650       19.5921870872
  C         3.6927531880        7.9974955842       15.9127567717
  H         2.2838396899       11.1720037101       28.0558716847
  H         1.7226779517       11.4103397566       29.6525198775
  C         3.0658648347        9.6886047936       29.5303252209
  H        -2.5212626513       10.9723345264       26.3298309485
  H        -3.2566677401       11.3540455755       27.8701650650
  C        -4.1201856542        9.6896617640       27.2060329901
  C        -1.6158769127       15.9123335273       31.5682703952
  C        -1.5468826103       13.5902621933       32.6346159137
  H         7.6866709491       14.1018591570       19.8364286711
  H         7.7825651642       12.3218618971       19.6806135889
  C         6.8211615858       13.3534909205       18.0672520028
  H         3.6440582908        6.9196022549       16.0536889939
  C         3.9638839255        8.3948964545       14.5283266557
  H         3.6407078057        9.1833477105       28.7645752272
  H         2.5999760023        8.9606756256       30.2330421628
  C         4.0644422468       10.5789986341       30.2849045412
  H        -3.9764238116        8.9242020484       26.4888001379
  H        -4.2033388935        9.2071786756       28.1514002089
  C        -5.4122691477       10.4237011388       26.8615877320
  N        -1.4499574964       16.8802102375       30.5970056772
  C        -1.9044880260       16.4240670906       32.7539808156
  C        -1.9030282092       14.1407340090       33.7923104051
  H        -1.3393474320       12.5513239117       32.6804773400
  H         5.8657009028       13.8838374101       17.9504309935
  H         7.5681604992       13.9067629280       17.5073254110
  H         6.6326590544       12.4241088266       17.5341930408
  S         3.9950030971       10.0677918108       13.9143836921
  C         4.1089285069        7.3134926924       13.5081380253
  H         4.1078178531       11.5391161290       29.9153306249
  H         3.7749324678       10.6309719350       31.3472047339
  C         5.4934847269       10.1179595431       30.1009673526
  H        -5.5331529492       11.2480185267       27.5554796618
  H        -6.2581695132        9.7633241278       27.0055561566
  C        -5.3050117216       11.0143173307       25.4727488882
  S        -1.5409335182       18.3294673203       31.3076876914
  N        -1.9414902484       17.7860762327       32.7737901881
  C        -2.0753851351       15.6617427754       33.9419071480
  H        -2.0397378988       13.5856012411       34.7422172147
  C         4.2764561270        9.2801526433       12.3182985933
  N         4.3652504001        7.9000977958       12.3472732671
  O         4.2250517535        6.0578310599       13.8199236936
  H         6.2521251144       10.9461932348       30.3076564012
  H         5.7985687877        9.8656894980       29.0488478421
  C         5.7525692738        8.9400694347       31.0885081021
  H        -4.8274122296       11.9519720259       25.5585295203
  H        -4.6949207526       10.4673187148       24.7178551106
  C        -6.6927472194       11.4423364345       24.9454851556
  C        -2.3180840559       16.4226917376       35.1315649265
  S         4.6229882554       10.1940955814       10.8409157870
  C         4.4314161421        7.0905477764       11.1222175623
  H         6.4065601357        9.1217647016       31.9613908538
  H         4.8261463223        8.5948833570       31.5499923487
  C         6.3423388330        7.6951377815       30.3653334672
  H        -6.6187789889       12.1599155806       24.1075127969
  H        -7.0743544057       12.1357428055       25.6819437679
  C        -7.6290259274       10.3133160719       24.7175984584
  H        -1.9814428066       17.3928419517       35.1116629017
  C        -2.9067278964       16.0817846535       36.3390166812
  H         5.1992741132        7.5179272355       10.4800614145
  H         4.6614606467        5.9658852271       11.1612884445
  C         3.0702411578        7.1418206025       10.4641866645
  H         7.1443494101        8.0010265504       29.7186506346
  H         5.5483965488        7.3513064813       29.7112452104
  C         6.9970036062        6.5815719588       31.2176198635
  H        -8.0213311849       10.4141607028       23.7265127036
  H        -7.1371678463        9.3325698710       24.7781108703
  C        -8.8165260360       10.3601661621       25.5837634457
  S        -3.6252977017       14.5520093811       36.8468037598
  C        -3.0336495138       17.1088525197       37.4169043470
  H         2.7362541896        8.1575544025       10.1744853930
  H         2.9414829155        6.4593477862        9.5506368260
  H         2.3194103496        6.8907237031       11.2272562569
  H         7.7886072975        6.0463970957       30.6226439167
  H         6.2026496132        5.8047483653       31.3437454643
  H         7.4634003817        6.8950050441       32.2084892277
  H        -8.9919751096       11.3548978623       25.8338569991
  H        -8.6081066082        9.9568330500       26.5728504129
  H        -9.6828150049        9.7769721443       25.2382719684
  C        -3.9907150020       15.2245767906       38.4063953761
  N        -3.6131275487       16.5541599532       38.5271827665
  O        -2.6136329425       18.2666149420       37.3756464932
  S        -4.6944003452       14.4307221178       39.8023506952
  C        -3.7608372182       17.3363849670       39.7699134847
  H        -3.5991769801       18.4618627554       39.5843269476
  H        -4.7447336128       17.3027052747       40.2341875197
  C        -2.5883175543       17.0537668439       40.7173276401
  H        -2.9570325656       17.0092608798       41.7347267608
  H        -2.1677927822       16.0475292169       40.5332798099
  H        -1.7797203063       17.6683115194       40.5773812291
