352
i=
  H         2.4292884717        4.0662660887       12.6841048343
  C         2.7762563897        3.0469180947       12.5508065521
  H         1.9948275925        2.6599554161       11.9055509581
  C         4.1777198442        2.8538961349       11.9517891546
  C         2.7529939302        2.5102889853       14.0343789201
  C         4.4123307618        3.0392286772       10.3987497262
  H         4.4183981487        1.7923016766       12.0740315500
  H         5.0425599561        3.4079063069       12.4615576636
  H         2.1560130849        3.1460685578       14.6234793334
  H         3.7375454141        2.6934608890       14.3527229892
  H         2.4554497977        1.4839541734       14.2039822379
  C         4.7983218397        1.7470928723        9.7387112283
  H         3.5710130560        3.4549544732        9.8996919510
  H         5.3070266592        3.6727796256       10.3973012013
  C         5.2673837973        1.8834404660        8.3077870252
  H         3.9340477310        1.0759098018        9.7344643332
  H         5.5631346494        1.1710324657       10.3056823975
  C         6.6426200835        2.6305921502        8.2152819465
  H         4.5521904495        2.3372547439        7.6172469525
  H         5.4128907879        0.9018532428        7.7712250996
  C         7.8952396162        1.9842745748        8.9962522888
  H         6.7417076451        2.8274282682        7.1674955316
  H         6.5567543276        3.6693783970        8.6231460711
  C         9.0510374162        2.9045236353        9.1923382645
  H         8.1316188735        1.0900697092        8.4083143711
  H         7.6281134732        1.6409732567        9.9882627679
  C         8.7427634302        4.2220769641        9.9252930373
  C         9.3330402725        3.6705662286        7.9719138471
  C        10.4276471354        2.1784591644        9.6982890522
  C         9.0039829776        5.3878396420        9.1772850996
  C         8.2842670744        4.5866091952       11.2022109322
  C         9.3760427859        5.0528833562        7.9188830312
  C         9.8142875170        3.0672082677        6.7825935171
  H        10.1869175899        1.5161824310       10.5938001158
  H        10.7925644171        1.5432100408        8.9828178650
  C        11.5859983698        3.1403460321       10.0418501144
  S         8.6957883233        6.7953598150       10.0187883783
  C         8.1747815702        5.9463499513       11.3910970805
  H         7.8523326786        3.8289613792       11.7731468790
  C         9.8092077445        5.6631318742        6.7924817289
  H         9.9081037035        1.9993946774        6.6976536884
  C        10.2602901009        3.6997459798        5.6527514006
  H        11.2044146753        4.0701036798       10.4855597273
  H        12.1730881637        3.4371222153        9.1970552404
  C        12.6003389019        2.6372649280       11.1625044500
  C         7.7964738375        6.5453098400       12.6845643648
  C        10.3141497548        5.0336878545        5.5768561784
  H         9.8301009792        6.7042129107        6.9801073028
  C        10.8252248234        3.2767976227        4.4546472366
  H        13.4942232482        3.3350384110       11.0447914065
  H        12.9724907094        1.6806116877       10.8995405779
  C        12.0637343289        2.7178828412       12.6104262237
  C         7.6524362110        7.9230720732       12.9194370816
  C         7.6149375975        5.6783829055       13.9142788152
  C        10.7868567532        5.6964670824        4.2831274491
  C        11.0946339628        4.3269505302        3.5918089857
  S        11.0426548815        1.7370135519        3.8570244737
  H        11.7395828414        3.7995885491       12.7128121758
  H        11.2973197913        2.0518579357       12.9292192547
  C        13.1652464365        2.5187842878       13.5933848567
  N         7.7477116086        8.8503614713       11.8979398967
  C         7.4961308966        8.4085981272       14.1692705793
  C         7.2030488234        6.1505596053       15.1620844433
  H         7.5031728440        4.6404685784       13.7065093250
  C        12.1112908770        6.4745170366        4.5796908036
  C         9.6848675917        6.5421199236        3.6498357125
  C        11.5715663579        3.8042665226        2.3926771436
  C        11.4394756044        2.4154725625        2.2985099639
  H        13.7855371467        3.3350786374       13.4932656061
  H        13.7047695240        1.5811880161       13.3212908565
  C        12.6049643850        2.2349761203       14.9472541638
  S         7.6859286928       10.3543774359       12.5535102732
  N         7.4588935547        9.8279322878       14.0781884447
  C         7.2553967472        7.6556167197       15.3528789175
  H         7.0729153819        5.4014668506       15.9079445574
  H        11.8932146087        7.1923499187        5.3326099784
  H        12.5445166586        6.9331512943        3.6967217586
  C        13.2727234307        5.5701331392        5.1375437897
  H         9.4308887776        7.2771359141        4.3997441991
  H        10.0445634539        7.0289788065        2.6944791020
  C         8.3624226091        5.7928732740        3.4345625711
  H        11.8563086327        4.5136163506        1.6689409298
  C        11.7666439409        1.5825051061        1.0717201446
  H        11.7387634871        2.8783173136       15.1952050130
  H        12.0374839945        1.3061728435       14.8910276805
  C        13.7206478093        2.3835514548       16.1369869842
  C         7.0838291886        8.3106435786       16.6126940956
  H        13.0595644725        5.2759347159        6.1600619050
  H        13.3969397254        4.6127888415        4.6460319650
  C        14.6213427645        6.0895915369        5.1844826157
  H         7.9785063742        5.4134083474        4.3760843099
  H         8.5064107335        4.9470021122        2.7506209850
  C         7.3110847255        6.5888574189        2.7705312046
  C        11.7659160474        0.1880829326        1.0114159503
  C        12.1220064668        2.3400482521       -0.1140385107
  H        14.1460423149        3.3904689358       16.2667199796
  H        14.6623705415        1.7876534068       15.9527801529
  C        13.0435909280        2.1065654431       17.4332626063
  H         7.3381602212        9.3445505933       16.5406148103
  C         6.5761031784        7.9609518261       17.8476814181
  H        14.5192140691        7.1620457613        5.3770958756
  H        15.1698349827        5.9752658615        4.2587617079
  C        15.4905425681        5.4632814209        6.2945866601
  H         7.0383468310        7.3825688582        3.5135580067
  H         7.7094362303        7.0186609875        1.9018073713
  C         6.1092406013        5.7184911298        2.3599438285
  N        11.5438477792       -0.6309727754        2.0811894282
  C        12.0878458748       -0.4250220073       -0.1443576720
  C        12.4202111299        1.7183823589       -1.3077919917
  H        12.1733455043        3.3994676334       -0.0733260678
  H        13.6282294732        2.7522946550       18.1361856158
  H        13.0438279942        1.0735938685       17.6842187155
  H        12.0640817642        2.4974986367       17.5760127214
  S         6.0121262871        6.4142513770       18.2601974521
  C         6.5436128352        8.9309434049       18.9746835916
  H        15.0104741383        5.5889156048        7.2180426184
  H        15.4748260120        4.3953222704        6.1108496786
  C        16.9715313828        5.8369332808        6.2683986497
  H         5.8590631210        4.8878957108        3.0429202195
  H         6.2743546057        5.2068588955        1.4418803262
  C         4.9096139733        6.6312943966        2.0908771715
  S        11.6139002226       -2.1615969222        1.5911362229
  N        12.1062497947       -1.7898829211        0.0700130014
  C        12.4824834044        0.2549327098       -1.2945055275
  H        12.8077527790        2.3093246743       -2.0788853856
  C         5.9215812410        7.0498908360       19.9109449069
  N         6.1268963184        8.3480361830       20.1254005439
  O         6.9266019372       10.1258015687       18.7587503793
  H        17.4177495112        5.5982377035        5.3044634777
  H        17.0993490185        6.9515070437        6.3240112996
  C        17.7489357287        5.3125069567        7.4016206697
  H         4.0485933636        6.0439517476        2.1111779397
  H         4.8307946118        7.4914754335        2.7664422249
  C         4.8426725198        7.2621563483        0.7212467076
  C        12.7041752662       -0.4726005239       -2.4766108276
  S         5.5750630215        5.9993646274       21.2734041070
  C         6.0785268311        9.0161285536       21.4857625526
  H        17.1808747554        5.2994476750        8.3304453671
  H        18.1314951029        4.3225663135        7.2383662877
  C        18.9591504974        6.1505118840        7.6647277185
  H         4.6801308120        6.5305376072       -0.0821670974
  H         5.8632953543        7.6629051160        0.5043606144
  C         3.7880227360        8.3647840086        0.5839071064
  H        12.5294408652       -1.5460922479       -2.3294270549
  C        13.2435254716       -0.2076540013       -3.6877440304
  H         5.2768748571        8.6188253818       22.1093477271
  H         5.7593048296        9.9894184154       21.2734957397
  C         7.4621901228        8.8668462369       22.1546618490
  H        19.4799398136        5.8176156560        8.5555483567
  H        18.5246011308        7.0334688707        8.0050419097
  C        19.8426022702        6.3438982266        6.3876345470
  H         3.6832393047        8.5585132697       -0.4664496394
  H         2.7311064505        8.2119025754        1.0265485372
  C         4.1999255522        9.6359937825        1.2031434285
  S        13.7585409004        1.2643754579       -4.3257498179
  C        13.3103295474       -1.3115845700       -4.6776438228
  H         7.9474665562        8.0759753108       21.6173343515
  H         7.4045437545        8.4862695967       23.1540131689
  H         8.1235276501        9.7415111666       21.9500433956
  H        19.3660764583        6.8770323966        5.5980070462
  H        20.7410048832        6.8718160366        6.7115353057
  H        20.2302713518        5.4501154766        5.9336955761
  H         3.3853628123       10.3051012750        1.1993463163
  H         4.4848697359        9.4377050908        2.2496767318
  H         5.0611010275       10.0583168397        0.7074094204
  C        14.0974624367        0.4325810130       -5.7766688851
  N        13.8842658870       -0.8431001288       -5.7601742913
  O        13.0304215916       -2.5157545713       -4.4598861970
  S        14.7917020228        1.0810526534       -7.2341626847
  C        13.9119905133       -1.7737529110       -6.9223064372
  H        14.3317767855       -2.7767537957       -6.6576091448
  H        14.5354582453       -1.4822454494       -7.6666408672
  C        12.4866352534       -1.9789193202       -7.5044918758
  H        12.5508647271       -2.9255736594       -8.0398523681
  H        12.1245560993       -1.1018519176       -8.0737740201
  H        11.6588716871       -2.1445702641       -6.8320994614
  H        -1.4925548948       15.1314197051       15.6803717871
  C        -2.3707662410       14.5983666250       16.0767363538
  H        -3.0234710700       15.3127755878       16.5616107235
  C        -1.7572865125       13.5451268255       16.9604268039
  C        -3.1523708630       14.0467200311       14.8602573025
  C        -2.3561589045       13.4733009386       18.3507468589
  H        -2.0328747514       12.6212076877       16.3983985139
  H        -0.6792055112       13.6336662541       16.9725455627
  H        -3.1845774703       14.7153569762       14.0021818436
  H        -2.6395068691       13.1238346952       14.5320735309
  H        -4.1811853476       13.7664579838       15.1651724920
  C        -1.3839057928       14.0399842916       19.3362599021
  H        -2.5797036163       12.3934877985       18.6443482637
  H        -3.3817034151       13.9019562018       18.3197877448
  C        -2.0966801269       14.1978862284       20.6721101530
  H        -0.4051959123       13.4543389892       19.4429983264
  H        -1.0721807715       14.9408734934       18.9363583066
  C        -1.1838928590       13.6526746275       21.8505187575
  H        -3.0701004283       13.7161918270       20.6428544769
  H        -2.4077694201       15.2294295510       20.7930203439
  C         0.1759492417       14.3894319531       22.1396695620
  H        -1.7274544299       13.3593933815       22.7490954885
  H        -0.7649553480       12.7037533121       21.5640899131
  C         1.2071204894       13.5657556410       22.9019556804
  H         0.7175033366       14.6727164741       21.2701909975
  H        -0.0964072112       15.3076627312       22.7236019943
  C         1.5568270292       12.1824678559       22.2567207718
  C         0.7159053804       12.8499972811       24.1356199099
  C         2.4968133434       14.3487181916       23.2352506543
  C         1.3878911142       11.1298492372       23.0871084271
  C         2.0531852446       11.8141206930       21.0020308824
  C         0.8328110649       11.5148027694       24.2580191904
  C         0.1468363607       13.3650386580       25.2931444426
  H         2.8012205131       14.7457214034       22.3022343955
  H         2.3231006810       15.1500031297       23.8825919289
  C         3.7446444041       13.5680031526       23.8046005916
  S         1.7364659876        9.6525225735       22.3275845898
  C         2.1392591678       10.4649119168       20.8572341025
  H         2.1211773594       12.5111400479       20.1706796670
  C         0.4365404020       10.8454788259       25.3638012696
  H        -0.1157585420       14.3712941222       25.2321231996
  C        -0.1951490985       12.7011850820       26.4258335192
  H         4.0161952886       12.6965692492       23.1844424530
  H         3.4180325424       13.2623470488       24.7752405795
  C         4.9749853729       14.5248338602       23.9448992457
  C         2.6181184848        9.8161734754       19.6016511257
  C        -0.0350977164       11.3528071646       26.5437282570
  H         0.5777394879        9.7922798486       25.3630267258
  C        -0.6376298498       13.0550897670       27.6595267816
  H         5.6969170847       14.0277675298       24.6703891098
  H         4.6256220198       15.4870113346       24.3443278821
  C         5.6754494622       14.8695710882       22.6075571397
  C         2.6118154891        8.4173499788       19.4453076712
  C         3.2289308225       10.6455643421       18.5498670823
  C        -0.4387115682       10.6672541323       27.7948591604
  C        -0.8173657548       11.9782528195       28.4715882024
  S        -0.8026170420       14.6032842137       28.4595033492
  H         6.3629348005       15.6591197358       22.9100765387
  H         5.0402986726       15.3443743696       21.8978662970
  C         6.4246155491       13.7167698158       21.9024221158
  N         2.1191414886        7.4934556592       20.3423459514
  C         3.0319023466        7.8558412314       18.2453785422
  C         3.7252569234       10.0385197081       17.3739350593
  H         3.3875712945       11.7618693480       18.6756883155
  C         0.6924916487       10.0134153807       28.5600347539
  C        -1.6287726106        9.7240591972       27.5481236407
  C        -1.1337249591       12.4064653783       29.8144461493
  C        -1.1629110582       13.7513081249       29.9893296551
  H         7.4842434701       13.8747119155       21.8879464061
  H         6.2264364896       12.8058507811       22.4967284213
  C         5.8864460916       13.2693170724       20.4948247516
  S         2.2356512140        6.0466458160       19.6736597038
  N         2.9588200786        6.5110771204       18.2975338710
  C         3.4687627721        8.5800801705       17.0982835773
  H         4.1824734212       10.6152875285       16.5770000789
  H         1.0273100158        9.2907665367       27.7789739907
  H         0.1720438232        9.4388832899       29.3606999148
  C         1.9111151596       10.9284037948       28.9296115307
  H        -1.4244291764        8.8700928884       26.8492894971
  H        -1.8346123914        9.1972260080       28.4782966810
  C        -2.8443990709       10.4290056245       26.9552623406
  H        -1.2470775398       11.5583875450       30.5039549048
  C        -1.4628950240       14.4337108348       31.2867858587
  H         4.9008311969       13.6857832901       20.3907530580
  H         5.7579600476       12.1918385008       20.5974803494
  C         6.8600015595       13.7036619196       19.3835539374
  C         3.6478779010        7.8405292617       15.9139870323
  H         2.3136330676       11.5458679605       28.0945437673
  H         1.4991885773       11.6295553762       29.6807529535
  C         3.0503709320       10.0815583378       29.5646611753
  H        -2.6185359002       11.0994150368       26.1106357068
  H        -3.2537577348       11.0639809746       27.8103519510
  C        -3.7529647095        9.2717472424       26.6172499673
  C        -1.5429445726       15.8742264535       31.3861709432
  C        -1.7160843079       13.5942507948       32.4810813200
  H         7.0131264826       14.7805233392       19.6619327319
  H         7.7882160755       13.1466992384       19.5378976155
  C         6.4695449602       13.3868721615       17.9496905934
  H         3.5278295649        6.7129634216       16.0717613058
  C         3.8532609923        8.1983120477       14.5867716446
  H         3.4553364533        9.4952510416       28.6986289915
  H         2.5770722271        9.4558264148       30.3135064500
  C         4.1695328836       10.8485540363       30.1595540129
  H        -3.2714273059        8.6013939867       25.8413781844
  H        -3.7985786945        8.5904703154       27.5150228423
  C        -5.1574873800        9.7458450993       26.3401328183
  N        -1.3347278755       16.8165573512       30.4376545716
  C        -1.8838101379       16.3582095139       32.6817774093
  C        -1.9749112157       14.1503800541       33.7357092063
  H        -1.4778389634       12.5183868511       32.3758965231
  H         6.1634674927       12.3610127630       17.8900789142
  H         5.7476454955       14.0000564454       17.4079764463
  H         7.3958914644       13.3390368781       17.3670945203
  S         4.1501371939        9.7739690766       14.0620935324
  C         3.9502085183        7.1360346679       13.5418238959
  H         4.3422690118       11.9001111306       29.6999891127
  H         3.9546614605       10.9584927234       31.2200304630
  C         5.5210554585       10.0754249631       30.1080243895
  H        -5.5376156389       10.5673712577       26.9958353769
  H        -5.9143510550        8.9595640795       26.3630765474
  C        -5.2360703755       10.4005202615       24.8917875298
  S        -1.6149982470       18.3119559331       31.1188819312
  N        -1.9748928711       17.7187893392       32.6223967698
  C        -2.0673907866       15.6005977285       33.8284123329
  H        -2.0201187865       13.5376606401       34.5812843656
  C         4.4245437833        9.0893228153       12.5180355040
  N         4.2169037819        7.7526054510       12.4363389068
  O         4.0384486629        5.8630263349       13.7020518890
  H         6.2129234193       10.7673431933       30.5571263652
  H         5.7462409510        9.9789207649       29.0624913433
  C         5.3842436427        8.7512077205       30.8180579773
  H        -4.3757007049       11.0443290728       24.8983610717
  H        -5.0755222054        9.8086530761       24.0030571315
  C        -6.4782059538       11.2849812175       24.8257125376
  C        -2.2993160511       16.3615707628       35.0388603456
  S         4.6064262816        9.9831065999       11.0300523182
  C         4.3714854402        7.0446874634       11.1521302030
  H         5.2742651121        8.9117736071       31.8747131003
  H         4.4683870359        8.2180867665       30.5851472250
  C         6.6168572326        7.9357059190       30.5446563774
  H        -6.3667197367       11.7942446985       23.9089055004
  H        -6.5457144654       12.1976083535       25.3567955708
  C        -7.8918071274       10.6004784741       24.6817095232
  H        -1.9192009077       17.3858932689       35.0416307778
  C        -2.8563467861       16.1025612456       36.2045130649
  H         4.8363684371        7.7016338024       10.3515330310
  H         5.0228251163        6.1956548943       11.2024993393
  C         2.9303434594        6.5263187470       10.6752459551
  H         7.5081674560        8.3693199249       30.9598875481
  H         6.7256225261        7.9650368080       29.4790731349
  C         6.5688054069        6.4949759821       31.1282299690
  H        -8.5652199249       11.0192525061       23.9050919530
  H        -7.8699695437        9.5618825239       24.3549096371
  C        -8.6767744899       10.6063874295       26.0018289652
  S        -3.5284571022       14.5890235105       36.6257952215
  C        -2.9612749456       17.2419384823       37.1999543502
  H         2.8587257445        6.6260217620        9.5674827128
  H         2.6863860074        5.4995166847       10.9279130649
  H         2.1225833624        7.2234983935       11.0558265777
  H         6.9536149474        5.7740756019       30.3704482410
  H         5.4734350983        6.2595764012       31.1790872414
  H         7.0776210090        6.4043457175       32.1256485215
  H        -9.3336264637       11.5201651132       26.0257973518
  H        -8.0945433478       10.7221853697       26.8564297737
  H        -9.2107026429        9.6956948371       26.0596581397
  C        -3.6750725351       15.3548650359       38.2113084155
  N        -3.4542497289       16.7032956138       38.3115230795
  O        -2.5815826628       18.3916762644       36.9451507857
  S        -4.5772832729       14.5966011032       39.5039079339
  C        -3.3866118644       17.4619904382       39.5394390058
  H        -3.6251381717       18.5315744344       39.3696727393
  H        -4.0463470704       17.0292785746       40.3858010358
  C        -1.9578125116       17.4633077376       40.1281457072
  H        -1.8372303637       17.7823336873       41.1313227356
  H        -1.6169279438       16.5032701802       40.0857926273
  H        -1.3078523467       17.9806132383       39.4037292400
