352
i=
  H         1.8446594504        1.6377418935       12.5690641394
  C         2.7785137894        2.1220927706       12.6403775566
  H         3.6424498091        1.4483504167       12.6520849781
  C         2.7903525865        3.0038506563       11.3609211067
  C         2.8554808731        3.0426571568       13.8764823397
  C         4.1249266923        3.1215681720       10.5926265446
  H         2.2996433358        3.9379552008       11.6090251036
  H         2.1160159133        2.5392106937       10.6498702752
  H         2.7315406756        2.4076284162       14.7165796252
  H         2.1890951093        3.9069530540       13.7520579110
  H         3.8648921792        3.4655461796       13.8508340242
  C         4.5871286494        1.8671398043        9.8074721955
  H         4.0228957403        3.8581368755        9.8566869623
  H         4.9286161932        3.5136875375       11.2424205169
  C         5.2229721371        2.1036193273        8.3972263402
  H         3.6985233475        1.3263510902        9.4974386906
  H         5.1853555848        1.3573666445       10.5985129789
  C         6.5448463564        2.9321955734        8.4269987040
  H         4.4765058838        2.6823746260        7.8223954282
  H         5.4542915782        1.1854709641        7.8249547865
  C         7.6596953107        2.0868580983        9.1210712497
  H         6.7037515097        3.1234091057        7.3596937272
  H         6.2676971602        3.8231984743        8.8874532139
  C         9.0160876349        2.8069527626        9.3225414993
  H         7.7541828585        1.2517006905        8.4844533901
  H         7.3779605087        1.5596484988       10.0439379723
  C         8.6184320871        4.1305314904       10.0076420844
  C         9.4797422198        3.4756611995        8.0728157625
  C        10.1571711573        2.1734785891       10.1143654647
  C         8.8927332646        5.2300864678        9.2027242697
  C         8.1331913359        4.5253483238       11.2329722653
  C         9.3383110211        4.8165236482        7.9914617773
  C         9.9299191594        2.8475815561        6.8931591159
  H         9.8605861872        2.2066006718       11.1416907642
  H        10.3414619545        1.1265661595        9.8709641400
  C        11.4651615572        2.9099203552       10.0513562523
  S         8.4676437671        6.7057434261        9.9480127083
  C         8.0383307319        5.8616151631       11.3405745297
  H         7.9852190319        3.7735479543       12.0270566745
  C         9.8752395717        5.4444092170        6.8882943977
  H         9.8891101163        1.7641920304        6.8818450906
  C        10.2600831851        3.5380513982        5.7293566633
  H        11.2100407747        3.9194457551       10.4345431326
  H        11.8472206176        3.0589748391        9.0484465459
  C        12.5925600048        2.2387472424       10.8383483017
  C         7.6474703008        6.5344406452       12.6370286639
  C        10.3417725095        4.8489853352        5.6721134223
  H         9.9758154542        6.4903732947        6.9371108490
  C        10.7158318096        3.1769012905        4.4481703391
  H        13.5539607421        2.7397015481       10.8114576928
  H        12.8463062973        1.2380302672       10.4279997860
  C        12.3027707626        2.0002051873       12.2687664733
  C         7.7551767021        7.9345898081       12.9151465538
  C         7.1449483993        5.7402487914       13.7435606953
  C        10.8115919326        5.5437389273        4.4175643026
  C        11.1062942491        4.2474015263        3.7362696168
  S        10.9169525210        1.6888174576        3.6648668943
  H        11.7707082969        2.8192434861       12.7428726748
  H        11.6050601213        1.1399337715       12.2849890204
  C        13.5064860095        1.7604271690       13.1514649878
  N         8.1794965382        8.8774171170       11.9644488178
  C         7.4737481811        8.5275717282       14.1094502398
  C         6.9391894364        6.3254439500       15.0320446905
  H         6.8294804171        4.7108895459       13.5977515838
  C        12.0858661220        6.4004604974        4.5691957018
  C         9.7793954777        6.3447346784        3.6773570496
  C        11.5826080473        3.8408572810        2.4103380387
  C        11.4245652235        2.4922638907        2.2194432256
  H        14.1057118442        2.6339587769       13.2854850262
  H        14.3053507872        1.2016908992       12.6625572211
  C        13.2258818627        0.9172808576       14.4281595971
  S         8.2052299114       10.3790688521       12.6279008878
  N         7.4779278901        9.9162662897       14.0443639190
  C         7.1531720972        7.7921829730       15.2662934252
  H         6.6281723551        5.6820953969       15.8624171543
  H        11.6830317897        7.3470128098        5.0266149773
  H        12.5174490330        6.6432147626        3.6360984538
  C        13.1756514011        5.7045538714        5.3058855204
  H         9.3709139395        7.0509573395        4.4030151031
  H        10.4002721732        6.8737807340        2.9940626233
  C         8.6306908432        5.5667348397        2.9767196342
  H        11.8987450563        4.5780511739        1.6497169189
  C        11.6295682498        1.8194816210        0.9095599496
  H        12.7793173190       -0.0404893573       14.1316895054
  H        14.1423917234        0.6795043199       15.0162864865
  C        12.2529086836        1.5831283061       15.4487572266
  C         6.8586894275        8.4699688406       16.5131130624
  H        12.7842472080        5.5970434490        6.3428727971
  H        13.4366247958        4.7246702296        4.8102131178
  C        14.4983282612        6.5258077259        5.4001994550
  H         8.0797444420        4.8692207278        3.6043185219
  H         9.0461101591        5.0327772122        2.0861531768
  C         7.5035331552        6.4880787149        2.5540983674
  C        11.6488443052        0.4161467354        0.7271222781
  C        11.8627440984        2.5235126048       -0.3134494373
  H        11.4146116479        0.8665946415       15.6796200922
  H        11.7642756151        2.3774593540       14.9610838248
  C        12.9465365163        2.0888544313       16.6685052349
  H         6.7979605908        9.5274081311       16.3628403316
  C         6.5739639681        7.9876429565       17.7822598541
  H        14.3751045365        7.1584368378        6.2481625274
  H        14.7186749586        7.1089185467        4.5011299940
  C        15.6503577036        5.5746464644        5.7731901294
  H         7.4812805197        7.2949319066        3.3299018743
  H         7.6499811206        6.9989983560        1.5897962115
  C         6.1489132506        5.7106659411        2.5980103265
  N        11.4960058968       -0.5630080168        1.7310622194
  C        11.9773532518       -0.2013718612       -0.4697856532
  C        12.2020904095        1.9307200363       -1.5387397241
  H        11.8899225581        3.6077428748       -0.2838747908
  H        13.5723103261        2.8978781244       16.4553443646
  H        13.5845922029        1.2988256240       17.1573713558
  H        12.1978444191        2.4376078481       17.4691847843
  S         6.3227516960        6.3208676122       18.2412744068
  C         6.5423314972        9.0066512483       18.9010112886
  H        15.2969231235        4.6560776204        6.2872530093
  H        16.0171503187        5.3446419122        4.8180590511
  C        16.7260617687        6.2353610286        6.6709077882
  H         5.7409381993        5.5302337543        3.6012743199
  H         6.3265382285        4.7218180125        2.1800668674
  C         5.0599290364        6.5142689878        1.8380050159
  S        11.5603796672       -2.0465005700        1.1328227988
  N        11.9289681087       -1.5785333441       -0.3736423261
  C        12.0727452789        0.4630983409       -1.6445884207
  H        12.2968565341        2.5654997614       -2.3955508513
  C         6.0954296947        7.0094504517       19.8626854725
  N         6.2415484030        8.3888062083       20.0362626108
  O         6.7952526938       10.2219090029       18.7636160783
  H        17.0922616142        7.0091495569        6.0779426532
  H        16.2519973174        6.5794712951        7.5683040649
  C        17.8726498264        5.3283021091        7.0246710986
  H         5.0847116783        6.3580627646        0.7727820101
  H         4.1838140489        5.9415835186        2.0753421263
  C         4.8749931120        8.0002111917        2.1372550857
  C        12.3720389788       -0.2597523484       -2.8468441389
  S         5.9901204678        6.0654253164       21.3549283774
  C         6.2178227046        9.0943544318       21.3148771034
  H        17.6217104075        4.7948290503        7.9094444600
  H        17.8148402072        4.6096112148        6.2517767742
  C        19.2495633502        6.0453620750        7.0203625670
  H         5.6634186329        8.6395197530        1.7331579204
  H         4.8556858907        8.2545976954        3.2301306685
  C         3.5603894411        8.6309395325        1.4669110864
  H        12.2324032366       -1.3319805728       -2.7891922657
  C        12.7290934135        0.1009730535       -4.1221919878
  H         5.4880969829        8.6508352396       22.0705398700
  H         5.7536666114       10.0144955044       21.0625160513
  C         7.6070743589        9.3566714923       21.8577827704
  H        19.7655123447        5.7793300522        7.9358418927
  H        19.2048616028        7.1026582676        6.9415772406
  C        20.0100917006        5.4056816091        5.8803187112
  H         3.4708856813        8.5021511551        0.3700787774
  H         2.6768091320        8.1947668103        1.8490340618
  C         3.5143926666       10.0818988314        1.8677323015
  S        13.1014941231        1.7362576702       -4.7272654163
  C        13.1468792569       -0.9517515647       -5.0750036379
  H         7.7151928427       10.4086637438       22.0833426067
  H         8.3459244537        9.1542849060       21.0733089336
  H         7.8642564427        8.8791151347       22.7962288036
  H        19.9599812806        4.3217119083        5.8818170054
  H        19.7177600496        5.8046881459        4.9335760603
  H        21.0606937703        5.5773982334        5.9489755532
  H         3.1468832308       10.6603379739        1.0488778045
  H         2.8104456809       10.2632171258        2.7020920032
  H         4.5499231677       10.4152590304        1.9578517986
  C        13.6236333803        0.9368819454       -6.1483332512
  N        13.6855028233       -0.3901386963       -6.1791904811
  O        12.8345584507       -2.1495772233       -4.8124940307
  S        14.2513352080        1.7308405954       -7.5604160273
  C        14.0009165503       -1.2563567913       -7.3582298549
  H        14.2929461394       -2.2484964383       -7.0566463434
  H        14.8760730978       -0.9880606408       -7.8262485304
  C        12.8809152113       -1.2525344833       -8.4432491286
  H        12.1145991026       -0.4905888952       -8.2380267420
  H        12.4876448270       -2.3548768688       -8.6401027126
  H        13.4515960966       -0.9718977171       -9.3339795266
  H        -3.6239907128       14.9734519709       16.6632597574
  C        -2.9815663459       14.0302542812       16.5933553321
  H        -3.7866544769       13.2583465794       16.6069030021
  C        -1.9491862375       13.8890293649       17.7050426850
  C        -2.3373469730       13.9108113302       15.2298121700
  C        -2.6572346590       13.7072935455       19.0223053914
  H        -1.2958409954       13.0996324083       17.5370520477
  H        -1.3753093835       14.8753350705       17.7815884799
  H        -1.2897288332       14.1721996303       15.2001440289
  H        -2.4470486459       12.8617291824       14.9169264141
  H        -2.8702132379       14.5507939994       14.4297608206
  C        -1.6447648138       13.5524000783       20.1478505236
  H        -3.4251860002       12.9035105352       19.0480995001
  H        -3.1633006803       14.6681692496       19.1435283849
  C        -2.2252291527       13.4888924744       21.5939320060
  H        -1.0303664001       12.7047275153       19.9987883756
  H        -0.8631508672       14.3320279932       20.0566012114
  C        -1.1197739011       12.9510844088       22.5364383762
  H        -3.0242160407       12.7456139642       21.6167071475
  H        -2.4332801817       14.4808459984       21.9699145853
  C         0.0505558600       13.8757445455       22.8974775291
  H        -1.6410003875       12.6709201221       23.4603198592
  H        -0.7893386881       11.9772711293       22.2492163027
  C         1.3295490083       13.2614171958       23.4190486430
  H         0.2876180348       14.5104629753       22.0885505726
  H        -0.3310150070       14.5972765968       23.6497392228
  C         1.6259452158       11.9336575031       22.6767865046
  C         0.9031557382       12.5727304468       24.6654614591
  C         2.5262838951       14.1945883679       23.4275119909
  C         1.4564814980       10.8592134169       23.4968508855
  C         2.1011679647       11.5391092506       21.4067107028
  C         0.9722424257       11.2364419788       24.7687752958
  C         0.4498869450       13.1784012718       25.8373868362
  H         2.7683749532       14.3674745465       22.3359636176
  H         2.2503329514       15.1601620361       23.7923297734
  C         3.7230984353       13.5297081165       24.0815549008
  S         2.0164052284        9.3504733327       22.7971737192
  C         2.3539517225       10.2087447409       21.3249075881
  H         2.0874791121       12.2704191474       20.6632129325
  C         0.5605550810       10.6409003824       25.9175610323
  H         0.4239092483       14.2842515358       25.8210019535
  C         0.1083374889       12.5682909492       26.9967853977
  H         4.0616104225       12.6652151826       23.4975922037
  H         3.5661157613       12.9902749518       25.0032295838
  C         4.8133671037       14.4883565532       24.4667960795
  C         2.8277182063        9.5105020000       20.1232065406
  C         0.0848632971       11.2063578060       27.1166606543
  H         0.5645698167        9.5932805757       25.9098748016
  C        -0.2690530810       12.9768955570       28.2393366185
  H         5.4269871147       14.1974139256       25.3029572441
  H         4.2433847932       15.3260601965       24.9890797943
  C         5.7604634882       14.9282794983       23.3576941247
  C         2.6383661322        8.1882678903       19.8088135577
  C         3.3463447660       10.4039971939       19.0797383592
  C        -0.3231392821       10.5247821133       28.4187535093
  C        -0.4747553848       11.9294649894       29.0990500262
  S        -0.3966423013       14.5339050911       28.9629548218
  H         6.4275692157       15.6557510602       23.8255120263
  H         5.1708482882       15.4377113517       22.6239698362
  C         6.6938175225       13.8876708661       22.6500258045
  N         2.2341429677        7.1926962582       20.6471257341
  C         3.0428254955        7.6679940112       18.5625915968
  C         3.5447481212        9.9579123556       17.7972224047
  H         3.6215678584       11.4239292430       19.3530477159
  C         0.7810577648        9.6596842306       29.0401837349
  C        -1.6591618616        9.7190794908       28.2317354682
  C        -0.8968487726       12.3694594889       30.3994818007
  C        -0.9524923513       13.7448652519       30.4445890871
  H         7.7184534600       14.3471213844       22.3935394852
  H         6.8730416248       13.0545730385       23.3394512578
  C         6.0679947687       13.3021503267       21.3427038813
  S         2.4205854610        5.7780237302       19.8699804114
  N         2.8116536321        6.3283597909       18.3849609225
  C         3.2780981817        8.5168485284       17.4506868022
  H         3.8318524697       10.6178250902       17.0158020887
  H         1.1758370442        8.8486624876       28.3463311913
  H         0.4710170789        9.0322841942       29.8978624909
  C         2.0156227631       10.5517139739       29.4667328638
  H        -1.5210823360        8.8575427871       27.6592241076
  H        -2.1017393075        9.4763859714       29.1952814568
  C        -2.7331976411       10.5759147165       27.5473887726
  H        -1.1290847693       11.6560705576       31.1636166380
  C        -1.3263267851       14.5479165647       31.6677631965
  H         4.9825938955       13.5057314004       21.1479940188
  H         6.0893875820       12.1834028384       21.3707661789
  C         6.8958295523       13.6678964282       20.1355504882
  C         3.5202373219        7.8429594285       16.1802934580
  H         2.3949975718       11.2338804681       28.6754380884
  H         1.7803796072       11.1042381211       30.3272182229
  C         3.1143591082        9.5593583658       29.9166012982
  H        -2.4907798775       10.9518948774       26.5259513035
  H        -2.8907103123       11.4577808907       28.2499385203
  C        -4.1368170713        9.8961259792       27.5046376957
  C        -1.3889248647       15.9461524254       31.8350863763
  C        -1.6393974063       13.8146607165       32.8924054219
  H         7.2006823108       14.6700616457       20.2773023475
  H         7.8000386910       12.9194061860       20.1567576255
  C         6.1902346879       13.3450456229       18.8327337217
  H         3.3157883192        6.8040227315       16.1241684605
  C         3.8407672940        8.3136926434       14.9236319238
  H         3.4017864263        8.8815056336       29.0817889663
  H         2.7352496155        8.7967887609       30.5565624846
  C         4.3910606475       10.1578527315       30.5584488866
  H        -3.9408036780        8.9489006956       27.1118241534
  H        -4.5565257310        9.6433144182       28.4772435435
  C        -5.1807256249       10.7316350093       26.7171143180
  N        -1.2528766133       16.8177719024       30.7661099101
  C        -1.8288591413       16.5560071991       32.9922269164
  C        -2.0716064930       14.3804480658       34.0507166211
  H        -1.5835571813       12.7876694464       32.8676023925
  H         6.8470266254       12.9895935422       18.0636714570
  H         5.4014633857       12.5839984447       18.8132787529
  H         5.6982653854       14.2430513998       18.4368159497
  S         4.1019119175        9.9253426590       14.4254567237
  C         3.9107033498        7.3249224765       13.8233899967
  H         4.4408008242       11.1714290855       30.1865414485
  H         4.2244834294       10.3359027414       31.6132834287
  C         5.7101109529        9.4611620176       30.4498575193
  H        -4.7534996723       11.3408848792       25.9388157019
  H        -5.5466370265       11.4137473692       27.4473960518
  C        -6.3240058828        9.8824956617       26.1731802426
  S        -1.3621623483       18.3209110462       31.3211691697
  N        -1.7278222294       17.9799277296       32.8676517869
  C        -2.1597901724       15.8442843362       34.1441997542
  H        -2.3630764984       13.7394022136       34.8853098389
  C         4.2434609348        9.3628353696       12.7460808487
  N         4.3200111461        7.9917947410       12.6640318796
  O         3.7052208896        6.1300959785       13.9482797473
  H         6.5516865609       10.0148795404       30.8153013850
  H         5.9950717780        9.4454148382       29.4369905896
  C         5.6386132236        8.0575190034       31.0456035635
  H        -6.1153604434        9.0209463590       25.5192666151
  H        -6.8529134895        9.4735085142       27.0848900742
  C        -7.2851571332       10.8073961051       25.3549471161
  C        -2.4889771290       16.6312791244       35.2901528669
  S         4.5511786788       10.2575396457       11.2938553674
  C         4.4836943269        7.1883349403       11.4786912657
  H         6.0058503411        8.0571255045       32.0443893490
  H         4.5733934466        7.8642988733       31.2427024657
  C         6.3242327985        6.9310862266       30.1913408561
  H        -6.6968169882       11.1254754019       24.4597648199
  H        -7.4806379133       11.7614595152       25.8175854553
  C        -8.5885521805       10.1944099077       25.0169062882
  H        -2.5410226207       17.7231017123       35.1820824287
  C        -2.9830836362       16.3029922358       36.5247025539
  H         5.2185405975        7.7010653296       10.8611660300
  H         4.7518510760        6.1544957227       11.7449823938
  C         3.1597431670        7.1735974318       10.7326065813
  H         7.1383662436        7.3609916755       29.6123021943
  H         5.6201202081        6.4604814284       29.4920242152
  C         6.9383693187        5.8316699637       31.0742456332
  H        -9.0564458623       10.7699066110       24.1632462190
  H        -8.3743569951        9.0998791070       24.7241138626
  C        -9.4682359706       10.0572631256       26.2343519336
  S        -3.6159464037       14.7086342142       37.0443391809
  C        -3.1417146173       17.3577205076       37.5689623978
  H         3.1278550996        8.0981459097       10.1407435836
  H         3.0522481225        6.4162406396        9.9085480774
  H         2.3252039639        7.0680853914       11.4610388027
  H         7.5628811115        6.2444063233       31.8246015815
  H         7.6915359928        5.2354376240       30.5498222635
  H         6.2190238429        5.2697525236       31.5223128642
  H        -8.9029165460        9.5631810140       26.9526888187
  H       -10.2520601187        9.4157694399       26.0132806737
  H        -9.6582424614       11.0084648830       26.5862296672
  C        -3.7519054636       15.4449456319       38.6216484796
  N        -3.6999527535       16.7839295204       38.6671014513
  O        -2.8419430516       18.5066198847       37.4450964156
  S        -4.2144139745       14.6045617454       40.0817053409
  C        -3.9324051420       17.5611897311       39.8427225960
  H        -4.4089552057       18.5526992282       39.6297383767
  H        -4.6326455251       17.0870618639       40.5172838349
  C        -2.6562703213       18.0193892458       40.5571225726
  H        -2.0798706636       17.1169818531       40.8090826378
  H        -2.1165052817       18.8266887049       40.0674775053
  H        -2.8486836409       18.5706954911       41.4897742997
