352
i=
  H         5.3786895189        1.6543336349       12.5711893156
  C         4.5333678997        2.2826587368       12.8419363196
  H         5.0275458210        3.2687422877       12.6801207420
  C         3.3509641091        2.3325013340       11.8328457261
  C         4.0945752145        2.2898334115       14.2675757963
  C         3.8473318766        2.5424040875       10.3407217790
  H         2.6245238491        3.1865704705       11.9789334331
  H         2.7901462524        1.3888477741       11.9520908352
  H         3.0601178534        1.8773155670       14.3813836366
  H         3.9926417492        3.3079575479       14.5836609078
  H         4.6051247335        1.7962682598       15.0795590083
  C         4.5679364891        1.2860269387        9.8621992743
  H         2.9195241401        2.7711652523        9.7391729090
  H         4.5650893071        3.3268141610       10.1398640253
  C         5.3132727067        1.4083110991        8.4583762185
  H         3.7912388151        0.5373041951        9.7570121536
  H         5.3094827834        0.9203983642       10.6255730389
  C         6.5655864041        2.3579131676        8.3453236638
  H         4.6995600520        1.8330267522        7.6780266016
  H         5.5824195267        0.4030617937        8.0363442075
  C         7.7978227569        1.8117962007        9.0595825131
  H         6.9442317373        2.4588357243        7.3463895794
  H         6.3235774455        3.4081702564        8.6059969481
  C         8.9990610555        2.7948310639        9.2764415341
  H         8.0895403499        0.9819615751        8.3727559014
  H         7.4861964717        1.4715345111       10.0662810371
  C         8.5719892252        4.1085197400        9.9678350942
  C         9.5075504488        3.5815821280        8.0885813574
  C        10.1746599472        2.0088373975        9.8853329745
  C         8.8844415898        5.2627210706        9.2515456365
  C         8.0107808368        4.4231497961       11.1738158709
  C         9.4517997347        4.9093606672        8.0587985146
  C        10.0834432404        2.9962841971        6.9390592961
  H         9.7514529688        1.4409420014       10.7306231127
  H        10.5105293206        1.3238258074        9.1281461372
  C        11.4176814468        2.8945398093       10.3189486784
  S         8.4020008197        6.6670945935        9.9919007474
  C         7.8925488578        5.7749610871       11.3697665571
  H         7.8476309809        3.6212786025       11.8557425864
  C         9.8111295604        5.5650824960        6.8839012104
  H        10.1955350681        1.9661786512        7.0217388690
  C        10.3552146033        3.6032032653        5.7527685726
  H        11.0781535347        3.8931041074       10.6841270970
  H        11.9641013314        2.9971315775        9.4230014958
  C        12.3551996456        2.3065685531       11.3668786038
  C         7.4135700189        6.4691157922       12.6016769162
  C        10.2064913444        4.9323809697        5.6480544645
  H         9.6482533065        6.6886398133        6.7938896896
  C        10.7634425520        3.2401190024        4.4804989677
  H        13.2336034007        2.9613450512       11.4487387999
  H        12.7159301971        1.3807262862       10.9649218049
  C        11.7044953576        2.1184952461       12.7180576711
  C         7.3825896072        7.8528277194       12.8800404390
  C         7.1089674093        5.5045247467       13.7158722615
  C        10.5204464691        5.6250116909        4.2805090622
  C        10.8423598392        4.3244115818        3.6264014760
  S        11.1455716787        1.7433951251        3.7551483096
  H        11.2574362422        3.0351213482       13.0222746909
  H        10.9914556558        1.3439118568       12.6174141918
  C        12.7395564200        1.7233013230       13.8761513838
  N         7.4802725338        8.8629476006       11.9843919061
  C         7.1549652384        8.3222761823       14.2049588931
  C         6.6869758081        6.0425943170       14.9594965082
  H         6.8278424763        4.4857731113       13.6112163740
  C        11.7558932894        6.5656460684        4.3593880068
  C         9.2680639242        6.3272891989        3.6749077714
  C        11.2189257123        3.9167313547        2.3369661227
  C        11.4232410825        2.5728792184        2.2616534423
  H        13.2652226282        2.6297341077       14.2348651130
  H        13.5711145740        1.0671734584       13.5850686645
  C        12.0449259102        0.9871462071       14.9831956336
  S         7.7220455658       10.2986344779       12.8253091113
  N         7.3581651114        9.7240989674       14.2697197469
  C         6.7985107212        7.5071529860       15.3019375967
  H         6.2631146226        5.3544363480       15.6853052596
  H        11.3353943647        7.3730673197        4.9172318233
  H        12.0900903491        6.8192102312        3.3082693739
  C        12.9554855520        5.8683587084        4.9894444165
  H         8.8744272016        7.0521399337        4.3413235450
  H         9.5343582055        6.7611707472        2.6983764933
  C         8.1123527996        5.4742448210        3.4134840707
  H        11.2775395308        4.6689534681        1.5196143884
  C        11.8449194977        1.8530188095        0.9985158623
  H        11.2172030606        1.3521684599       15.4544550943
  H        11.8167900992        0.0862748061       14.4548593352
  C        12.8992909556        0.5433560534       16.2244407131
  C         6.5124546123        8.1273659608       16.5864446618
  H        12.6705849198        5.6153703350        5.9768379249
  H        13.1699641494        5.0012251519        4.4652293389
  C        14.2138941874        6.6451404862        5.2361754200
  H         7.7989667645        5.0849320938        4.3686793676
  H         8.2690057370        4.6654944115        2.7750752161
  C         6.8706075353        6.2696920352        2.8811424035
  C        11.9431000503        0.4110809625        0.8056699724
  C        12.2091001131        2.6564361490       -0.2071628690
  H        13.8530473185        0.2574088767       15.9471266755
  H        12.3373600606       -0.1496199163       16.7620381900
  C        13.0998121156        1.6937001995       17.2337835336
  H         6.7647514059        9.0980649870       16.5505562326
  C         6.3189944985        7.5709196424       17.8047601433
  H        14.0799351146        7.2761783594        6.1066486700
  H        14.4848368521        7.1573783376        4.3447145967
  C        15.2859159439        5.6777630778        5.5387553795
  H         6.5474940346        7.1930213767        3.3857782127
  H         7.1495075081        6.5353341450        1.8855604973
  C         5.7446681551        5.2968538206        2.6112836679
  N        11.8364510561       -0.5933809531        1.7854597904
  C        12.2525537986       -0.1478919269       -0.4151194058
  C        12.5859752745        2.0256902904       -1.4285496877
  H        12.1661813736        3.7567527671       -0.2518386228
  H        12.0686599216        1.9973890946       17.6294053827
  H        13.5204744075        2.5403514018       16.7702997113
  H        13.6809415610        1.4029930537       18.1991391282
  S         5.8265493831        5.9388992104       18.0689267675
  C         6.4008344181        8.3996168777       19.0190232485
  H        14.8835326347        4.7585868713        5.9730961554
  H        15.6797683189        5.5022239445        4.5111745145
  C        16.4274717838        6.2264557966        6.4166671390
  H         5.5605709950        4.8102706118        3.5506390944
  H         6.0592900000        4.5515007394        1.8827457789
  C         4.5229137469        5.7894278881        1.8614367127
  S        11.9448389024       -2.0351672922        1.0660222517
  N        12.3292398804       -1.5091938371       -0.4003193104
  C        12.5360683896        0.5612748846       -1.6057016395
  H        12.9127405658        2.6262331238       -2.2554737481
  C         5.8124761026        6.3994192208       19.8659513011
  N         5.8819306561        7.7455709161       20.0438699069
  O         6.8052198691        9.5149568818       18.9696354953
  H        16.9012392778        6.9695951470        5.8097360104
  H        16.0337146387        6.6039449837        7.3812719876
  C        17.5174098858        5.1330923520        6.6520654458
  H         4.6550705266        5.8230733408        0.7706828768
  H         3.6766073543        5.1026641694        1.8705508719
  C         4.0089561138        7.1897613744        2.3786662984
  C        12.7513023917       -0.2420540853       -2.7578845383
  S         5.2027447662        5.6309941771       21.3099482176
  C         5.7813499107        8.4994424238       21.2988310602
  H        17.0742849965        4.2491471569        7.1356542154
  H        17.8462163568        4.7881465344        5.6730013557
  C        18.8079990960        5.6922597840        7.3658407004
  H         4.3686138035        7.3245553189        3.3980268385
  H         2.9307196738        7.3025147398        2.4171600974
  C         4.6052206507        8.2762918337        1.5206585560
  H        12.3794957350       -1.2543566043       -2.7927182746
  C        13.2633513198        0.0689801643       -4.0047743094
  H         5.1083114652        8.0947339801       22.0440093127
  H         5.3720710794        9.4538087544       21.0688642411
  C         7.1890609203        8.6940905882       21.8862430204
  H        19.0571953550        5.0304382902        8.1108136727
  H        18.5505204836        6.6042356541        7.8673237493
  C        19.9342908902        5.9185134795        6.3880054234
  H         5.1620063149        9.0129913652        2.2453419240
  H         5.3469529778        7.8432906840        0.8490795768
  C         3.6738903131        9.1778265301        0.7309757134
  S        13.7832562828        1.7204952728       -4.4875533678
  C        13.3300966894       -1.0126315082       -5.0443315592
  H         6.9879649553        8.7641182221       22.9333851277
  H         7.6689514691        9.6633743426       21.6059059883
  H         7.8472925467        7.8322000654       21.7268759057
  H        20.3302422932        5.0004833243        5.9245925196
  H        19.5359277451        6.6316298776        5.7376362220
  H        20.7668121087        6.3287987371        6.9461171764
  H         4.1985278938       10.1004548058        0.3658632593
  H         3.4348627960        8.5800125162       -0.1311354994
  H         2.8298530400        9.4746439217        1.4196186592
  C        14.2412973384        0.7984424865       -5.9996693214
  N        14.0212966655       -0.4947429500       -6.0882359489
  O        13.0589561114       -2.1662340325       -4.8101524462
  S        15.0553750476        1.6372066012       -7.2055768369
  C        14.0704455131       -1.3994730348       -7.2585744140
  H        14.2417774723       -2.4298834494       -6.9188505163
  H        14.9875459525       -1.0775190949       -7.7709408850
  C        12.8211996567       -1.3072338835       -8.1849777759
  H        11.9312979823       -1.6675115784       -7.6409363626
  H        12.9429247264       -1.9732236281       -9.0561030066
  H        12.6791482958       -0.3395983465       -8.5334776504
  H        -4.2523967736       14.1899600001       16.6748511324
  C        -3.6232560948       13.3090870007       16.6525391975
  H        -4.3419605188       12.4789494275       16.6826868444
  C        -2.4968937804       13.2883191875       17.6929603539
  C        -3.1474897893       13.2955127955       15.2108881909
  C        -3.0966493732       13.5513493302       19.1268959209
  H        -2.1544948171       12.1803247042       17.6554314800
  H        -1.7269499314       13.9997588850       17.2897839498
  H        -2.5442295166       14.1566337447       14.8841574334
  H        -2.4305177034       12.5088358112       14.8512511168
  H        -4.0430664047       13.2060145365       14.5689119270
  C        -1.9563011667       13.6317722293       20.1924370035
  H        -3.6758935521       12.6616480201       19.4609600555
  H        -3.7599336317       14.3948257632       19.2248127733
  C        -2.2461134149       13.7807309832       21.6419658961
  H        -1.3600534147       12.7084305407       19.9820207251
  H        -1.2476409105       14.4514608166       19.9242909297
  C        -1.2339811057       13.1344708497       22.5660733946
  H        -3.2659201438       13.3324860362       21.7517558434
  H        -2.4235022204       14.7919155775       21.9830668846
  C         0.0634568888       13.8982477543       22.7464311988
  H        -1.6713998212       12.8517656189       23.5354758737
  H        -1.0062528349       12.1494821130       22.2072954257
  C         1.2933453404       13.1232361789       23.2740423702
  H         0.3247608403       14.3359275411       21.8006784492
  H        -0.0370083889       14.7616510195       23.3866789370
  C         1.5978810262       11.7433388745       22.5039103461
  C         0.9280212405       12.3471568473       24.4420935942
  C         2.5074897830       14.0846686635       23.5144161215
  C         1.4556141028       10.6051683120       23.3023829769
  C         2.0648114323       11.3731019954       21.2086969097
  C         0.9338540848       10.9547926406       24.5247165028
  C         0.5611006692       12.8995609680       25.6732295151
  H         2.8532468631       14.5435232724       22.6210968121
  H         2.1643962777       14.7668879349       24.3046985453
  C         3.7321979351       13.2848074799       24.1159483300
  S         1.8005543804        9.0997937954       22.5505269246
  C         2.0611908101       10.0014205491       21.0416617688
  H         2.3021199354       12.2633874028       20.5380381320
  C         0.5211060868       10.3538600953       25.6864549662
  H         0.5007938381       13.9856457009       25.7459952674
  C         0.0909704585       12.2835717253       26.8388376424
  H         4.2214392614       12.5204730672       23.4681460887
  H         3.4594155560       12.9015353434       25.0908837257
  C         4.7566800197       14.2581144003       24.4550880443
  C         2.4475768012        9.2300050299       19.7630495133
  C         0.0453789945       10.9657593198       26.8223906853
  H         0.5153177596        9.2558055752       25.5850211818
  C        -0.4077801478       12.6642520109       28.0982212811
  H         5.5094622305       13.6794450495       24.9857612428
  H         4.3393279940       14.9858605916       25.1463640375
  C         5.4426761406       14.9187913694       23.2565519859
  C         2.3463600612        7.8811152480       19.4815878931
  C         2.7506207954       10.1152387023       18.5983997815
  C        -0.4568418877       10.2678895521       28.0631660176
  C        -0.7161258232       11.5900093729       28.8387809187
  S        -0.5898505571       14.1260867712       28.8350249782
  H         6.1734724219       15.5934977665       23.6952998056
  H         4.7462537106       15.4638924301       22.6190273160
  C         6.2259127414       13.8621958569       22.4144759737
  N         1.9619144112        6.9642922442       20.4652748399
  C         2.6233595855        7.3059032362       18.3120450709
  C         2.9755255313        9.5516607370       17.3636030334
  H         2.9473198762       11.1795746638       18.6333495765
  C         0.6907065964        9.5097484357       28.7726060817
  C        -1.7541415056        9.4741527726       27.8849417940
  C        -1.1274533897       11.9214541883       30.1717581869
  C        -1.0630641109       13.2840968680       30.3200027219
  H         7.1688855072       14.2597312623       22.2626521594
  H         6.2538838203       12.7824701458       22.8611154073
  C         5.4352385385       13.7226288296       21.1347167770
  S         1.8645943373        5.5317581102       19.7831059651
  N         2.5486579163        5.9011908764       18.3536212325
  C         3.0307905808        8.0820827789       17.1735002604
  H         3.0982905260       10.1633331120       16.5425406053
  H         1.1559962240        8.6648326084       28.2118338290
  H         0.2358861578        8.9129691050       29.6053943821
  C         1.7381278764       10.4283008751       29.3343501985
  H        -1.6290538826        8.7956483272       27.1292450053
  H        -1.9817613912        8.9696513719       28.8068117078
  C        -2.9206149806       10.3845236602       27.4744227103
  H        -1.2458697932       11.1020271231       30.9022194808
  C        -1.3878613244       14.0087449794       31.5972447606
  H         5.4252654516       14.7127732794       20.6522450577
  H         4.3495897430       13.4707589188       21.3708413824
  C         6.1369421872       12.6431213527       20.3574186536
  C         3.2702321662        7.4862196416       15.9110148743
  H         2.1898577009       11.0743789331       28.6016444519
  H         1.3392574949       11.1215632421       30.0423715914
  C         2.8374225225        9.6560352490       30.0947512911
  H        -2.8127571418       11.0872025665       26.6827855666
  H        -3.1927283909       11.0630056996       28.2589871382
  C        -4.0662474046        9.5255781411       26.9935829410
  C        -1.4568185128       15.4103395835       31.7403003426
  C        -1.5803556825       13.2454474166       32.8532559846
  H         6.5447499155       11.8802439492       20.9869664058
  H         5.4111508857       12.1036788338       19.7237614432
  C         7.1456663417       13.2378543669       19.4008337190
  H         3.2681403433        6.3957506873       15.8642278136
  C         3.4766621255        7.9268030948       14.6173021533
  H         3.3815330128        9.0203824806       29.3449978539
  H         2.4298893120        9.0025641531       30.8098768584
  C         3.8183938954       10.5758756702       30.6990759925
  H        -3.8439995689        9.1469240099       26.0373458808
  H        -4.1558432212        8.6727811876       27.6353481499
  C        -5.4200788419       10.2057724662       27.0339052026
  N        -1.4033592457       16.2919536418       30.6370872846
  C        -1.8021314334       16.0659503964       32.8909907505
  C        -1.8947879148       13.8985558955       34.0446078287
  H        -1.4536045310       12.2248051234       32.7747837423
  H         6.7714036764       13.9500634855       18.6903199332
  H         7.7914307076       13.8279244811       20.0895384226
  H         7.7634109600       12.4185520555       18.9865668378
  S         3.7661400220        9.4705635727       14.0770134474
  C         3.5991418275        6.8723360787       13.5743442617
  H         3.6494724036       11.5119980427       30.2118694097
  H         3.5913606220       10.8037514829       31.7353725359
  C         5.2825639746       10.1415499752       30.4695858338
  H        -5.3209773093       11.2013622579       26.6291738545
  H        -5.6220297009       10.2286611333       28.0658564812
  C        -6.5240637705        9.4101066145       26.3506834117
  S        -1.3372254424       17.7638415077       31.2859365051
  N        -1.9507455449       17.3712597785       32.8175320408
  C        -2.0721544915       15.3721843899       34.0398008056
  H        -2.1104287053       13.3079634865       34.9372936287
  C         4.0471203076        8.7717892888       12.5329233119
  N         4.0480212615        7.4004686796       12.4525969866
  O         3.4392103273        5.6513135039       13.7142051035
  H         5.8857529091       11.0897990939       30.6437174496
  H         5.5245718066        9.9443304744       29.4225716057
  C         5.7262455719        8.9359668565       31.2273685949
  H        -6.0829877564        8.7965414849       25.5585797915
  H        -6.8657579771        8.5641547476       26.9828501049
  C        -7.5522406612       10.2800014756       25.6640396202
  C        -2.4929496956       16.0904643038       35.1815934258
  S         4.3922800277        9.6867689769       11.0641694961
  C         4.1004793559        6.6441066789       11.2409402777
  H         6.1984722708        9.2521663137       32.1354789964
  H         4.8008387925        8.3229190563       31.4097898210
  C         6.7257545634        8.0821051842       30.4324520632
  H        -7.0527178017       10.8354172872       24.8608428491
  H        -7.6992481176       11.0805218227       26.3613116050
  C        -8.8870482082        9.6497574979       25.2151460095
  H        -2.3110166990       17.1342284341       35.0974791166
  C        -3.0190343036       15.8099486967       36.4410690936
  H         4.9390394591        6.9820694552       10.6595117872
  H         4.2303559596        5.5136009044       11.3781323053
  C         2.8129052028        6.8521529022       10.4246697326
  H         7.3547337105        7.6194377711       31.2274766529
  H         7.2650695731        8.7322146722       29.7857671530
  C         6.1270358904        6.9105511198       29.6147466872
  H        -9.4064001582       10.0275629584       24.3633559109
  H        -8.6596641500        8.6062860064       25.1190526729
  C        -9.9475810717        9.7893782806       26.2992484718
  S        -3.5902124676       14.2330438131       36.8205385264
  C        -3.0163580201       16.8362671065       37.5438826772
  H         2.6854944805        7.8126362750        9.9604396556
  H         2.8193230371        6.1502014059        9.6192546581
  H         1.9332424371        6.6972787204       10.9841607507
  H         6.9896024300        6.2821503552       29.3037968177
  H         5.5676066925        7.2779040808       28.7363179770
  H         5.4098608544        6.3213186969       30.2547223582
  H       -10.0580866063       10.8306463950       26.5181289707
  H        -9.4812954263        9.2766824070       27.1307651956
  H       -10.9048737603        9.3932560661       26.1162816184
  C        -3.8117405086       14.9336058979       38.4297086878
  N        -3.5273509299       16.2538959595       38.6261375562
  O        -2.4909385393       17.9365587225       37.5347537692
  S        -4.6971770331       14.1487142830       39.7660431648
  C        -3.7798514678       17.0938616701       39.8445098333
  H        -3.8693129080       18.1385261064       39.6270410681
  H        -4.7906671044       16.8788213184       40.1454120831
  C        -2.6378873017       17.0752757442       40.8516073561
  H        -1.6898065846       17.0787328931       40.3262337750
  H        -2.5942435788       18.0336275850       41.3463206891
  H        -2.7385079825       16.1971871245       41.5682532538
