352
i=
  H         4.4682064430        1.1654425185       12.7115411208
  C         3.9866228057        2.1651865890       12.8137436044
  H         4.7720191114        2.9122112480       13.0358438655
  C         3.2070618650        2.3472183823       11.5050158585
  C         3.1709943263        2.0008519352       14.0729444852
  C         4.0078370940        2.7393880583       10.2797702880
  H         2.5125018876        3.0847441862       11.6356980076
  H         2.6930244269        1.4131222271       11.3130046428
  H         2.7752563789        0.9751057253       14.2073314612
  H         2.4043906222        2.7725603139       14.0904324449
  H         3.7302653149        2.1862632692       14.9848574950
  C         5.0040003633        1.6268783350        9.8705151966
  H         3.1646429283        2.8539393937        9.5830691176
  H         4.4547958642        3.7137614073       10.3967785962
  C         5.8442220802        1.9203855163        8.5883065269
  H         4.4601866823        0.6835142205        9.6869761784
  H         5.5873860940        1.2757527809       10.6572384970
  C         7.0122721091        2.8302696609        8.8300175487
  H         5.1379546788        2.4423533244        7.9492790650
  H         6.0879312328        1.0132118047        8.0563937456
  C         8.2579856725        2.1471986210        9.3877591470
  H         7.3979760846        3.3886919044        7.8995530932
  H         6.6994588584        3.6558640985        9.4713479287
  C         9.5013286963        3.0595709980        9.4530901034
  H         8.3848573736        1.2588164670        8.7302639778
  H         8.0751781288        1.6255547264       10.3556135582
  C         9.0672205537        4.3418034363       10.0568061168
  C         9.8687495692        3.6990279329        8.0940476255
  C        10.6733717343        2.3249738050       10.1552881433
  C         9.2364064861        5.4524650883        9.2337275104
  C         8.4463984512        4.7011069420       11.2911331963
  C         9.7585867948        5.0493880730        7.9730528991
  C        10.3283299762        3.0604872881        6.8919107033
  H        10.3488585704        1.5503635422       10.8565148509
  H        11.2955617123        1.9146125803        9.4107417108
  C        11.5330954559        3.1671043125       11.0316718013
  S         8.7477404476        6.9426122544        9.9570272806
  C         8.3336268842        6.0925232966       11.3995720997
  H         8.1319409558        3.9288632927       12.0215561117
  C         9.9905093867        5.6542064504        6.7644353174
  H        10.4101572398        1.9897376953        6.8756492466
  C        10.5527484823        3.6843154998        5.6797952715
  H        10.9156436003        3.1384489478       11.9430513367
  H        11.7349821258        4.1638043258       10.5865732458
  C        12.9121056059        2.6341133853       11.2717385160
  C         7.7375314614        6.7402258109       12.6095927662
  C        10.4045180380        5.0048058959        5.5571346479
  H         9.9168885732        6.6959713466        6.6884618794
  C        10.9542789805        3.2946399789        4.4072779608
  H        13.5856301264        3.5229030547       11.0417845114
  H        13.1678024092        2.0415698494       10.4060588190
  C        13.0571436585        2.0416797874       12.7251953795
  C         7.8731694255        8.1318243265       12.9034621825
  C         7.1981242458        5.8656782416       13.6397274088
  C        10.7449344363        5.6449189504        4.2939421494
  C        11.0748241972        4.3519657120        3.6252547276
  S        11.2279597424        1.8342713904        3.5879362108
  H        12.2884879292        1.3078879724       12.9747723544
  H        13.9657208196        1.5344058512       12.8189302067
  C        12.9226233095        3.1926477953       13.7754878324
  N         8.3858531625        9.0829991845       12.0631667914
  C         7.5231203937        8.6727757627       14.1604810571
  C         6.8835450712        6.3530010474       14.9063548945
  H         7.0118278991        4.8416329476       13.4255828735
  C        12.0145300763        6.5674312271        4.4668100290
  C         9.5619707808        6.3702261209        3.5249634874
  C        11.3905619466        4.0393705974        2.2811922274
  C        11.4825912993        2.6805106646        2.1041310588
  H        12.5684715211        4.0518952051       13.3214572884
  H        13.9387910797        3.4528823473       14.0037424739
  C        12.1900313751        2.8776734540       15.0892534646
  S         8.2690174389       10.5400376791       12.8180418605
  N         7.6791602185       10.1050242828       14.2049332449
  C         7.1162019906        7.7938492838       15.2149082587
  H         6.3385741155        5.7264237463       15.6424167240
  H        11.7282071650        7.5616677276        4.7526237826
  H        12.4888456713        6.5144074167        3.4482650230
  C        12.9608545717        5.9696574471        5.4962247186
  H         9.3669709369        7.3867735896        3.9248883685
  H         9.8275123657        6.5127759571        2.4510607261
  C         8.2158711291        5.6160971246        3.4152531638
  H        11.3572388913        4.7804912279        1.5308974305
  C        12.0498136298        1.9504187252        0.9067141678
  H        11.9671013802        3.8513516718       15.5325682403
  H        11.3273650197        2.3536178540       14.7836398041
  C        12.9126939442        1.9602514091       16.0226890477
  C         6.7597254617        8.4089695583       16.4904413764
  H        12.6632728777        5.7868285718        6.5293448885
  H        13.4542125651        5.0556153355        5.2294830191
  C        14.1861428334        7.0135131644        5.6210051731
  H         7.6785756720        5.5815992965        4.3669584643
  H         8.5177565108        4.6423990160        3.1060912632
  C         7.3502526909        6.0611340571        2.2758217689
  C        12.0767199708        0.5676719423        0.7348461542
  C        12.2775046223        2.6715733068       -0.3407753640
  H        13.5502225269        1.1428717249       15.6103895422
  H        12.1709074501        1.4229711063       16.5614247493
  C        13.8642868348        2.5234057206       16.9943153672
  H         7.1136592154        9.4523938186       16.5031157719
  C         6.4422389568        7.9777061672       17.7788606382
  H        13.8710270630        7.9679778998        5.9904717192
  H        14.6148427666        7.1556389640        4.5979072740
  C        15.2322466930        6.3188017069        6.6154718561
  H         7.7159709002        7.0323560888        2.0454849394
  H         7.2958429419        5.4475400651        1.3847508843
  C         5.8982534528        6.3581548337        2.7035521249
  N        11.8646353799       -0.3775760429        1.7806986468
  C        12.4073778437       -0.0359803374       -0.4599020176
  C        12.6603222151        2.0827762836       -1.5424763566
  H        12.2732090224        3.7162832424       -0.4433787590
  H        13.3389779206        3.2499606054       17.5956682469
  H        14.7913643544        2.9546679600       16.6485253820
  H        14.1379324164        1.7650620790       17.6908560998
  S         6.2214182906        6.4562902323       18.2924115029
  C         6.2908263059        8.9694655549       18.7879740859
  H        15.5612337041        6.9842867629        7.4695003974
  H        14.8062843775        5.4925420994        7.1291196692
  C        16.5680191999        6.0451313853        5.9859465778
  H         5.4905358468        5.5479282875        3.2768814018
  H         5.2956869241        6.3896842226        1.8575459835
  C         5.7741979714        7.6597794978        3.4267310381
  S        11.9209609569       -1.8546886607        1.1559082036
  N        12.3029225283       -1.4161157787       -0.3964771948
  C        12.7018580904        0.6133338355       -1.6643322386
  H        12.8480105187        2.7001208379       -2.4690158182
  C         5.9070813809        7.1037171238       19.9105587243
  N         5.9584688779        8.4432953995       19.9708173324
  O         6.5511289092       10.1884564992       18.6097692730
  H        16.5588080906        5.5686267320        5.0439673544
  H        17.1670693351        6.9324533903        5.8192591699
  C        17.4252834225        5.1206594648        6.8852512784
  H         5.0795639697        7.5451000474        4.3321471240
  H         6.7732753528        7.8675265641        3.8261507025
  C         5.3416753939        8.7049606989        2.3914033642
  C        12.9365726272       -0.2037557935       -2.8650598259
  S         5.4226113665        6.0760907177       21.2957566632
  C         5.8747833569        9.1464499831       21.2583757471
  H        16.7874347816        4.7104385086        7.6535392267
  H        17.7536974737        4.3425395822        6.1808266898
  C        18.5597367172        5.8392640683        7.5683527784
  H         5.6848685969        8.4961084496        1.3804594789
  H         5.5728769957        9.6998532131        2.8296987977
  C         3.8193675097        8.7584073256        2.3037870876
  H        12.6712402351       -1.2842840150       -2.6867228310
  C        13.4666974696        0.1350642084       -4.1024041603
  H         5.2486879747        8.5978148266       21.9854552006
  H         5.4793497701       10.1718957938       21.1924869782
  C         7.3235010310        9.2328460551       21.7998819186
  H        18.7319733211        5.4525818867        8.5626684307
  H        18.2066856585        6.7687182094        7.8203998105
  C        19.8072635077        5.8530795832        6.7165901510
  H         3.4771988223        7.7077513528        2.0651955875
  H         3.4093739269        9.0511882806        3.2731299372
  C         3.3692333865        9.8550417393        1.3322459256
  S        14.0159381598        1.6920183166       -4.5443917205
  C        13.3941502292       -0.7847479123       -5.2380405779
  H         7.5829860081        8.3791382123       22.2989016514
  H         7.3821776019       10.0854571408       22.3568796782
  H         7.8902726661        9.5072850284       20.9173016285
  H        19.7022771330        6.5976343473        5.9309637431
  H        20.5568330648        6.2089909867        7.3966158596
  H        19.9860495033        4.8867233645        6.2382542822
  H         2.6170996111       10.4821377137        1.8172371784
  H         4.1971832361       10.4367550628        0.9867263722
  H         2.9801136309        9.4192760756        0.4013922504
  C        14.2692765963        1.0379689203       -6.0895745136
  N        13.8892402358       -0.2165495650       -6.3546484176
  O        13.0975125784       -1.9664948852       -5.1632559017
  S        14.9933681872        2.0234455534       -7.3219054704
  C        14.0340281362       -0.8963506715       -7.6084116526
  H        14.5764127382       -1.7794467077       -7.2794486819
  H        14.6573656417       -0.3422336628       -8.2637493036
  C        12.6627813293       -1.2257711986       -8.2452800040
  H        11.8177571906       -1.3290480652       -7.5796398300
  H        12.6544368437       -2.1210781415       -8.7657940205
  H        12.3901672861       -0.6198005937       -9.1267461689
  H        -2.5734767165       15.1943547842       16.2003243927
  C        -2.9819854314       14.1877559654       16.3299799254
  H        -4.0512317388       14.2840348657       16.3601517191
  C        -2.6282930452       13.4153298955       17.5848714308
  C        -2.5669505361       13.3615322253       15.1399017977
  C        -2.3442502068       14.2657660841       18.7924689625
  H        -3.3434788167       12.7600290872       17.8726625201
  H        -1.7423596347       12.7997780433       17.4023576525
  H        -1.6087019543       12.9042283347       15.2773187351
  H        -3.2772707116       12.5272841352       14.9232962726
  H        -2.5719026125       14.0584886217       14.2200186482
  C        -1.6408008248       13.4828953644       19.8707552775
  H        -3.2499268087       14.7263404268       19.0859599820
  H        -1.7144070448       15.0927516392       18.4363257997
  C        -2.3962482955       13.4342619566       21.2265011823
  H        -1.5220481857       12.4479574159       19.4711639491
  H        -0.6545225069       14.0448030669       19.8279036077
  C        -1.5189536438       12.8433371488       22.3688732163
  H        -3.3652396440       12.9868759121       21.1846064642
  H        -2.5816844820       14.4318641682       21.5179378075
  C        -0.2161119209       13.7345628200       22.5952418928
  H        -2.1302950967       12.9522022899       23.2407158881
  H        -1.3820185232       11.7564289948       22.2300042930
  C         1.0154129512       13.0146698232       23.2226591209
  H         0.0226645988       14.1243473172       21.6489572801
  H        -0.3939085875       14.6051092878       23.2364157050
  C         1.2954151069       11.6957549113       22.4593011138
  C         0.6680880443       12.3305432602       24.4647183053
  C         2.2275007270       13.9428986849       23.3649492019
  C         1.1110343575       10.6108337999       23.2663928292
  C         1.7861516576       11.4684693912       21.2185883518
  C         0.7549305228       10.9860446628       24.5416681246
  C         0.2274162180       12.9427024916       25.6523681983
  H         2.3109245649       14.6408444622       22.4914221844
  H         2.0643498589       14.7132556851       24.1162397517
  C         3.5405014989       13.2463813817       23.5433331575
  S         1.5363138909        9.1846904050       22.3705527619
  C         1.8882693518       10.0759923445       21.0097470356
  H         1.8967409657       12.3164820511       20.5754264019
  C         0.3366179675       10.2908206040       25.6670928370
  H         0.2852593238       14.0440989847       25.6372291434
  C        -0.0987553172       12.3087300656       26.7459702330
  H         3.9779937345       12.7566492430       22.6750195935
  H         3.2525604810       12.4605338237       24.2056387367
  C         4.5667883985       14.0976971212       24.1829447117
  C         2.3371020499        9.3348527850       19.8099112606
  C        -0.0688626624       10.9779692201       26.8419811239
  H         0.5368414186        9.2088078151       25.6555465778
  C        -0.4869322348       12.7084003990       27.9963520953
  H         5.2232361019       13.4782948872       24.8089102767
  H         4.1716642732       14.6979072543       24.9571211152
  C         5.4458070806       14.8393688993       23.2483696178
  C         2.4764115490        7.9386617959       19.6200698297
  C         2.7319215658       10.1957404077       18.6826056510
  C        -0.4485275003       10.3059020500       28.1675877627
  C        -0.6767173773       11.6560222806       28.8367511625
  S        -0.8566408519       14.2244917485       28.7422436974
  H         6.0213707936       15.5423446852       23.7940877755
  H         4.8787471245       15.5081676633       22.5782780282
  C         6.3522804749       13.9367245340       22.4637635263
  N         2.2482121218        6.8767865104       20.5231142470
  C         2.9117427629        7.3956314229       18.4015588197
  C         3.1389463460        9.6382562438       17.4700156015
  H         2.6474767769       11.2545650802       18.7076202109
  C         0.6523233428        9.4928179153       28.9399706348
  C        -1.7501042003        9.4889934126       28.0070796206
  C        -0.9430681302       12.0820373704       30.1815189807
  C        -1.0878001474       13.4217249962       30.2546936952
  H         7.3301772358       14.2674456259       22.6167294610
  H         6.3695104848       12.9724179357       22.9923848510
  C         6.0144490960       14.0209743184       20.9156869939
  S         2.5967254936        5.4337989835       19.8604095943
  N         2.9349988290        5.9981414300       18.3498161717
  C         3.1426499020        8.1707543419       17.2252407027
  H         3.4129381365       10.3334320076       16.6712963431
  H         0.5143208936        8.4265095451       28.7264767193
  H         0.4949834806        9.5619716015       30.0046099180
  C         2.1351168732        9.9793429319       28.7958292627
  H        -1.6320560757        8.6862150822       27.3139966414
  H        -1.9542819458        9.0477132853       28.9882503865
  C        -2.9611480341       10.3906032044       27.5925545472
  H        -1.1959081900       11.4416293808       30.9196665661
  C        -1.3183082260       14.1997118925       31.5335997816
  H         5.9065439533       15.0481526651       20.7019578672
  H         5.1193636776       13.4013057079       20.8429122351
  C         7.0511611465       13.3411660198       20.0389093615
  C         3.3772604774        7.4567638570       16.0269064035
  H         2.7050795391        9.5414430128       27.9464979469
  H         2.1275337394       11.0412169185       28.6595292853
  C         2.8874431357        9.8601532336       30.1119660538
  H        -2.6512109680       10.9972388409       26.8311683259
  H        -3.2352802565       10.9796439701       28.4549790166
  C        -4.1171106595        9.4621937993       27.2675280916
  C        -1.4302311736       15.5885260524       31.5787806792
  C        -1.6201188443       13.4991481936       32.8132788467
  H         8.0256467592       13.5422460465       20.4213321396
  H         6.9356021913       12.2923153541       20.2898301323
  C         6.9344949467       13.7513532254       18.6105588507
  H         3.3392493850        6.3831077496       16.0242295021
  C         3.7161554163        7.9373581837       14.7972833925
  H         2.5209804879        8.8870258959       30.5618156731
  H         2.7031245204       10.6867482722       30.8276416789
  C         4.4116173085        9.7747223726       29.9931788207
  H        -3.8512009642        8.6765511277       26.6124391805
  H        -4.3059162488        8.9798227705       28.2508791204
  C        -5.4413214622       10.2048471294       27.0531097918
  N        -1.2274022229       16.4270191102       30.5757415840
  C        -1.5601333158       16.2837991160       32.7579493681
  C        -1.8739139843       14.1623139401       34.0370041985
  H        -1.6192279335       12.4065204537       32.8267864057
  H         5.9357494564       13.6717388851       18.2673548579
  H         7.3035599406       14.8112725138       18.4021425073
  H         7.5046051982       12.9537182701       18.0336188474
  S         4.0668389111        9.5941297678       14.3205085213
  C         3.7235412085        6.9497724447       13.7456802106
  H         4.6909385991       10.5479632564       29.2762551937
  H         4.7175992273       10.0889627150       30.9724007333
  C         4.8905402525        8.3416878612       29.7423092152
  H        -5.3171230634       11.2260619711       26.7396174177
  H        -6.0062227617       10.1456086219       27.9587216193
  C        -6.2101648364        9.5411212440       25.9306397025
  S        -1.1641452455       18.0011809351       31.0770941867
  N        -1.4620150178       17.6975712177       32.6200352911
  C        -1.9030839551       15.6758933056       33.9940362301
  H        -2.0916387947       13.5315366337       34.8691432931
  C         4.3596303833        8.8816259332       12.7743600477
  N         4.2355619931        7.5356521351       12.6778894931
  O         3.5760392428        5.7444632866       13.9557834873
  H         5.8533470202        8.4900779530       29.1694398817
  H         4.1878978688        7.8661199883       29.0763501550
  C         5.1493279203        7.6485717035       31.1252338886
  H        -5.5411536370        9.2651309905       25.1551200501
  H        -6.6692126133        8.6343841582       26.4197716183
  C        -7.3179535203       10.4705852578       25.4993580994
  C        -2.2396037784       16.5250521563       35.1193128243
  S         5.0099423931        9.6819002040       11.3553124405
  C         4.3064579684        6.7883146980       11.3981439023
  H         5.8897431586        8.1334638577       31.6687542917
  H         4.2871480594        7.7472478652       31.7817397467
  C         5.4583347839        6.2043074235       31.0104305432
  H        -6.8176866951       11.0907848491       24.8018733610
  H        -7.6802702550       11.0976744920       26.2886904676
  C        -8.5178276500        9.8640640004       24.7690092933
  H        -2.2667008987       17.5873107354       34.8652702629
  C        -2.6718096078       16.2288003403       36.3819916164
  H         5.0739538425        7.0976570536       10.7518637302
  H         4.4686374056        5.7679261888       11.4857987131
  C         3.0193163005        6.8548102879       10.6533870240
  H         5.1210518421        5.8890268109       30.0165951184
  H         5.0120182858        5.6193462283       31.8086212171
  C         7.0107373323        6.0142934963       31.1187628043
  H        -8.9155916953       10.5102214196       24.0248517713
  H        -8.3295649664        8.8473505827       24.3563003599
  C        -9.6664132004        9.4959907096       25.7718622071
  S        -3.0123628247       14.7028739285       36.9656056016
  C        -2.8833910234       17.3175930710       37.3531079380
  H         2.8776223846        5.8253317243       10.3957830740
  H         2.1612370833        7.2558244935       11.1565041199
  H         3.1705417710        7.3541864117        9.7337468081
  H         7.3588999992        4.9584750228       30.8775209467
  H         7.3197997297        6.3618731963       32.1048478455
  H         7.5887896617        6.5931917136       30.4507305992
  H       -10.2388219913       10.3427333079       26.1409527317
  H        -9.3302078505        8.8696566655       26.5278364336
  H       -10.4193757270        8.9195589991       25.2309672959
  C        -3.5478860560       15.5029964407       38.4506906730
  N        -3.3895685225       16.8383688312       38.4987407288
  O        -2.5385363970       18.5039236797       37.1705184207
  S        -4.0888952869       14.6367470543       39.8926580292
  C        -3.4495519409       17.6465211403       39.7801022798
  H        -3.6766138642       18.6636633124       39.4602237285
  H        -4.3381237724       17.4133578838       40.3487450340
  C        -2.2036573246       17.5157944089       40.5914319462
  H        -2.0342211557       18.4509083399       41.1021719627
  H        -2.3533440742       16.7074430174       41.3257378990
  H        -1.3408573514       17.3397282965       39.9277815692
