352
i=
  H         4.1239358334        0.8948548509       12.3046996445
  C         3.7955521950        1.8728621591       12.6209460732
  H         4.6484788772        2.4928673466       12.9083254562
  C         3.0523884383        2.6017804699       11.5918153170
  C         2.9923934095        1.7840347009       13.9555319368
  C         3.9671911949        2.7986104159       10.3808808835
  H         2.6504224035        3.5311370617       12.0320382916
  H         2.2143758355        1.9516907066       11.3450920712
  H         2.0553979070        1.3260851601       13.7675135556
  H         2.8450220975        2.7506166231       14.4520146435
  H         3.5829724300        1.1046476365       14.6219496274
  C         4.5075345325        1.4730124984        9.8520564759
  H         3.2848761125        3.1080271548        9.5958395643
  H         4.5768499198        3.6034931896       10.4698921011
  C         5.1827041203        1.4817177875        8.4577900872
  H         3.6469856648        0.7775490145        9.8529482940
  H         5.2532822499        1.1081149656       10.5784901766
  C         6.5258564866        2.3027912368        8.5015767920
  H         4.6037019533        1.8665444274        7.6625786283
  H         5.4214557781        0.5113991438        8.0040265039
  C         7.8111668303        1.6257600470        8.9895305355
  H         6.6769084654        2.5223141063        7.4233423880
  H         6.3272906492        3.2694479719        8.9598170672
  C         9.0349826619        2.5480745851        9.1102913791
  H         7.9010290919        0.7549476941        8.4529736343
  H         7.6432467968        1.4156203891       10.0138457877
  C         8.6450618141        3.8545749958        9.7335441738
  C         9.4178747627        3.2287935027        7.8419177093
  C        10.2911680653        1.9591117562        9.8351838364
  C         8.9711578352        4.9482885683        8.9540339179
  C         8.1068259165        4.2155342724       11.0176479232
  C         9.4528906588        4.5830880222        7.7304721908
  C         9.9589641787        2.6087309838        6.7513161084
  H         9.9258494004        1.6017136354       10.7935569581
  H        10.5421329333        1.0257486572        9.3252207650
  C        11.5039633229        2.9436326557        9.9798758652
  S         8.6368706071        6.4341027281        9.7515195568
  C         8.1124141621        5.5920991648       11.1654578080
  H         7.8973410434        3.4815875989       11.7600661050
  C         9.9005323065        5.2299160237        6.6771210982
  H         9.9759892226        1.5375555008        6.7835578058
  C        10.5081473722        3.3146233294        5.6643560581
  H        11.1232300190        3.9215141013       10.2933271070
  H        11.9968370337        3.1155242145        9.0432748885
  C        12.4913775420        2.5344932008       11.0500476782
  C         7.7638365815        6.3637764095       12.3337128489
  C        10.5466250923        4.6585808809        5.5599830084
  H         9.7729618419        6.3113496508        6.7339690285
  C        11.0655212374        2.9117267940        4.4775681594
  H        13.3779878358        3.1409076004       10.9941810754
  H        12.8188398843        1.5424644001       10.8095917151
  C        11.9829469867        2.4588216273       12.5252519784
  C         7.8204140453        7.7388973740       12.5164122081
  C         7.3954283612        5.5972709368       13.5714117945
  C        11.0724316851        5.3516528061        4.4115664433
  C        11.3179601931        4.0334377755        3.6741660381
  S        11.2165781557        1.4599550455        3.6234229957
  H        11.6915800149        3.3961791154       12.9949257936
  H        11.1876670567        1.7200702467       12.5675334527
  C        13.1119670315        1.9617127548       13.4113261531
  N         8.0394633417        8.6212249542       11.5251620398
  C         7.4808052573        8.4158147638       13.6556173432
  C         7.0001179185        6.2670499861       14.6874140196
  H         7.2851405261        4.6077724765       13.5921293015
  C        12.3735832466        6.2699188025        4.6504796607
  C        10.0270141619        6.2623218345        3.6661711647
  C        11.7409122872        3.6874527076        2.3891218210
  C        11.7702677916        2.3360712740        2.1892664849
  H        13.6948209697        2.8451109774       13.5915011093
  H        13.7274892477        1.3347923444       12.8367340818
  C        12.6118057219        1.2237551644       14.6948241156
  S         7.7997064632       10.1938581469       12.0174566550
  N         7.4984854824        9.7852318951       13.5640472876
  C         7.0777673644        7.7579621476       14.8595732476
  H         6.6391695430        5.6554297661       15.5418692667
  H        12.2505933813        6.7043361676        5.5991703604
  H        12.6464666134        7.0953092939        3.9958718584
  C        13.6285469551        5.3831834180        4.7761218104
  H         9.6948127277        6.9651691986        4.3455862339
  H        10.4735708691        6.8622729303        2.9192874778
  C         8.7704639651        5.6483325805        3.0063169419
  H        12.0956103456        4.4197673772        1.6767812638
  C        12.0224704750        1.7168446380        0.8682974515
  H        11.5340460948        1.4166416449       14.8861368282
  H        12.6804679692        0.1436221345       14.4614119344
  C        13.5982169311        1.4852169342       15.8542444695
  C         6.8353145142        8.5563883490       16.0453770506
  H        13.4084318195        4.5397246884        5.4019794207
  H        14.0156911799        4.9880026244        3.8559466370
  C        14.8246069273        6.0970460596        5.3726581013
  H         8.3317884901        4.8809697903        3.6956532712
  H         9.0984666843        5.0423785706        2.1779697258
  C         7.6359811528        6.5882603152        2.4205872905
  C        12.0148099842        0.3173596179        0.6739700544
  C        12.3254765871        2.5481211462       -0.3132237951
  H        14.4594056214        2.0492420306       15.4320600578
  H        14.1150928790        0.5804149866       16.2571107935
  C        12.8776378017        2.2461444950       17.0622815821
  H         7.0260162526        9.6961963873       15.8859917685
  C         6.5686448735        8.2492000213       17.4028176984
  H        14.6230213321        6.4169460419        6.3773987299
  H        15.0346153990        6.9509971030        4.7439286785
  C        16.0176102452        5.1209835298        5.4449731359
  H         7.3108811536        7.2431584549        3.2344260100
  H         7.9925150882        7.2489907457        1.6583494752
  C         6.4752756149        5.8080354114        1.7565397388
  N        11.7790898141       -0.6550372886        1.6248127780
  C        12.4028628630       -0.2279979853       -0.5201693958
  C        12.5619135804        1.9596649963       -1.6137013934
  H        12.3978710588        3.6019572287       -0.1776879136
  H        12.3075260029        1.4988010396       17.6861482205
  H        12.1953906743        2.9453509723       16.6951871879
  H        13.6037321400        2.7169487393       17.8068572507
  S         6.2602464727        6.6855389038       18.1465428608
  C         6.4772871317        9.3261620821       18.4429761197
  H        15.7766318361        4.2549700625        6.0951727671
  H        16.1107651129        4.8045988713        4.4130928504
  C        17.1631561385        5.8060852483        5.9831888956
  H         6.2123445738        4.8944292357        2.2008531492
  H         6.9575951710        5.5639891604        0.8452297614
  C         5.1436746845        6.5743074949        1.5068323453
  S        11.6951123126       -2.1286998160        0.8910456786
  N        12.3276148484       -1.6328317307       -0.5312756957
  C        12.7060221466        0.4959096118       -1.7359514948
  H        12.7233311389        2.6775049204       -2.4423599081
  C         6.1090727492        7.4501663326       19.7530021374
  N         6.2398652005        8.8164992860       19.6921041041
  O         6.6988391195       10.4891154844       18.2063857319
  H        17.7262489491        6.3041006829        5.2038518715
  H        16.7620495601        6.6852543403        6.4905403216
  C        18.0418200318        4.9074748740        6.9285184952
  H         5.4944973288        7.3960285791        0.8980177783
  H         4.3636720314        6.1110873257        0.9326647112
  C         4.4793199385        7.1184595402        2.7891621384
  C        12.8841728655       -0.2531267228       -2.9601513880
  S         5.6728831733        6.5041446337       21.1875806271
  C         6.2748667037        9.5967219894       20.8907060214
  H        17.4606941265        4.5808830818        7.7783892646
  H        18.4202291669        4.0018961103        6.4333080786
  C        19.1669125836        5.7177696396        7.5940901896
  H         5.0042621511        6.9749948810        3.6909045039
  H         3.6180144988        6.4818025511        3.0019351997
  C         4.1070499930        8.5952265475        2.7110415430
  H        12.6253060712       -1.2792287347       -2.8673432702
  C        13.3544222924        0.1636078238       -4.1547001724
  H         5.6689901685        9.0276538617       21.6616321938
  H         6.0229738818       10.6855606363       20.8429710829
  C         7.7438940941        9.4764378764       21.4645495934
  H        19.5690356093        5.2274640783        8.5124515640
  H        18.6564270062        6.6440055446        7.9878273892
  C        20.1891205638        6.0754878080        6.5114779268
  H         3.7418675758        8.8592394775        3.7315518867
  H         4.9562850112        9.1790536349        2.5760079989
  C         3.1317601253        8.9395657512        1.6156841915
  S        13.9421628764        1.7387883859       -4.4637527909
  C        13.4556986020       -0.8060818638       -5.2610397655
  H         7.9745082671        8.4670111409       21.7270365419
  H         7.8134422594        9.9237083859       22.4680742025
  H         8.5436058743        9.8772320765       20.8327285529
  H        20.3086373570        5.1793359408        5.9813471876
  H        19.8653624939        6.9120491519        5.8678628062
  H        21.1808854076        6.3500066978        6.9227437386
  H         2.9961477265       10.0236619785        1.6827844088
  H         3.5398989629        8.6657773003        0.6466726640
  H         2.1264066226        8.5295036226        1.8727410366
  C        14.2912354795        1.0854153949       -6.0829558907
  N        14.0405081376       -0.2149752886       -6.3157080481
  O        13.1547839506       -1.9689702237       -5.0969413817
  S        14.5625506295        2.0798948994       -7.5231500653
  C        14.2308197040       -0.9391885176       -7.5261107857
  H        14.6541790178       -1.9119628803       -7.3037163824
  H        14.9888509288       -0.4196727880       -8.1958753274
  C        12.9362894090       -0.9605293462       -8.3565145626
  H        12.3530376734       -1.8453883138       -8.0565483566
  H        13.1360970993       -1.0658056386       -9.4690746433
  H        12.4091373672       -0.0557383796       -8.1967701735
  H        -3.5403259937       14.6774205878       16.2081594708
  C        -3.1750610283       13.6527375515       16.3751621108
  H        -4.1824752874       13.2383188091       16.6769856133
  C        -2.0118606549       13.6753171742       17.4161304477
  C        -2.7927014333       13.1093989496       15.0176132794
  C        -2.5625335327       13.6283870598       18.8570839455
  H        -1.4185419933       12.8546179014       17.1039850662
  H        -1.4609279215       14.5337588094       17.3416191482
  H        -2.4327895023       13.9267781982       14.4371886185
  H        -1.9081787963       12.5091889359       14.9803318222
  H        -3.6142307911       12.5739159392       14.4531793152
  C        -1.6261245779       13.1056585031       19.8996051175
  H        -3.5643086266       13.0289981610       18.8791355567
  H        -2.9129501827       14.6251775546       19.1249389163
  C        -2.1018753262       13.5067683384       21.2756955860
  H        -1.4318350337       12.0429163505       19.7155116940
  H        -0.6989604336       13.5273304294       19.6415391129
  C        -1.1357261347       13.0023976364       22.4346151541
  H        -3.0422215831       13.0158451234       21.4849986618
  H        -2.1582281643       14.5601493290       21.2774722391
  C         0.1821072944       13.7677302780       22.6221325968
  H        -1.6574614134       12.7803124309       23.3882982008
  H        -0.8691326760       12.0071362321       22.1757366771
  C         1.3305772354       13.0446289460       23.3829172554
  H         0.4659487698       13.9743505897       21.6075531312
  H         0.0120224489       14.7483679321       23.0185291352
  C         1.7340262872       11.6916878681       22.6818966398
  C         0.9558798754       12.3468803806       24.6758167664
  C         2.5784165664       13.9983699456       23.3824872820
  C         1.4582309774       10.5798596701       23.4877695698
  C         2.3171775913       11.2664548407       21.5005285554
  C         1.0355118953       10.9723664612       24.7611153085
  C         0.3717877532       12.8953244413       25.7854059229
  H         2.6194649195       14.4210949644       22.3537953413
  H         2.3769353893       14.8206179280       24.0928184129
  C         3.9462107109       13.3998902883       23.8004221472
  S         1.8984987187        9.0557681012       22.8073579438
  C         2.3262888749        9.8937456181       21.3674454679
  H         2.4929651965       11.9960291243       20.6655172782
  C         0.6485932790       10.3938589415       25.9176663347
  H         0.3082833862       13.9495609004       25.6971273682
  C        -0.0779569567       12.2797724484       26.9230934155
  H         4.3299751861       12.6215194932       23.0893410311
  H         3.8768924933       12.7898324722       24.7121597916
  C         5.0630969162       14.4312603147       24.0347455147
  C         2.6813997648        9.2781515299       20.0542726313
  C         0.0741189135       10.9710467453       27.0925045278
  H         0.7766893928        9.2720979797       25.9334988983
  C        -0.5134002725       12.7220088335       28.1218210236
  H         5.9665313898       14.1090836113       24.6406374861
  H         4.6683904686       15.2623145838       24.6335321507
  C         5.5718474802       15.0391306281       22.7777300349
  C         2.6594963234        7.8706669624       19.8382802267
  C         3.1537667649       10.0933116675       18.8700312316
  C        -0.4803907654       10.2594145925       28.2863529179
  C        -0.7596332176       11.6123620429       28.9436655806
  S        -0.8357655961       14.2589845809       28.8772370868
  H         6.2859924052       15.7324290904       23.1527831896
  H         4.7427255366       15.6138164104       22.4269907969
  C         6.1888313910       14.0444816893       21.8200564585
  N         2.5114715200        6.9190070229       20.8837208143
  C         2.8855567843        7.3380741804       18.5780709486
  C         3.3553896514        9.4450881193       17.6658217919
  H         3.4382247523       11.1594433000       18.9220149454
  C         0.4992696722        9.3726223720       29.1505939583
  C        -1.7444264227        9.4644996295       27.9370066282
  C        -1.2565009968       12.0513291519       30.1987340822
  C        -1.3202636402       13.4366903301       30.2983268490
  H         7.0780279930       14.5121859933       21.5007214065
  H         6.5850678517       13.0658695683       22.2380055455
  C         5.2256919391       13.6996506756       20.7171154744
  S         2.3849010781        5.4555572424       20.0715134643
  N         2.7054773233        5.9181154110       18.5785963789
  C         3.1810261485        8.0449242791       17.4366791638
  H         3.4438482735       10.0378682575       16.7895437980
  H         0.5976105490        8.3887246160       28.7060876943
  H         0.0250573081        9.1923745547       30.1011810984
  C         1.8805238750       10.0312498823       29.5048431924
  H        -1.3757424148        8.5712963085       27.3427288755
  H        -2.2041490312        9.2019530277       28.9106906777
  C        -2.8037173330       10.2583153878       27.1217088941
  H        -1.5899998677       11.3306457958       30.9273574548
  C        -1.5437847801       14.1764820130       31.6070145883
  H         4.5444629434       14.5142868962       20.6356464001
  H         4.6278911690       12.8115544239       20.9428078164
  C         5.9286227047       13.6071076287       19.3766373055
  C         3.4360365051        7.3535430316       16.1599554123
  H         2.2014158924       10.4666489324       28.5336806859
  H         1.6140513349       10.8128402141       30.2552921282
  C         2.9940469604        9.1412472161       30.0618282325
  H        -2.3629773950       10.7346631308       26.2446679561
  H        -3.1049680742       11.1599366069       27.7225867718
  C        -4.0297379681        9.4599762301       26.9214177397
  C        -1.6300446543       15.5747175285       31.7847727671
  C        -1.7338695181       13.3696428555       32.8548536012
  H         5.6216843249       12.6818914037       18.9264068035
  H         5.6190715175       14.4260378396       18.6961086350
  C         7.4635395073       13.3701130479       19.3987241928
  H         3.4324451086        6.3080311197       16.2727266365
  C         3.6917299634        7.7634681745       14.8386619220
  H         3.3014501883        8.4266224250       29.2925532133
  H         2.7796633907        8.5802919156       30.8776828456
  C         4.2250138595        9.9241180002       30.4257502975
  H        -3.6992286725        8.7925853081       26.0835537199
  H        -4.2110854671        8.9545950990       27.9194438907
  C        -5.1954798896       10.3942169597       26.4920999457
  N        -1.3546418610       16.5513870009       30.7917650699
  C        -1.9891367880       16.1705485901       33.0204191839
  C        -2.1684109818       13.9350098804       34.1102712657
  H        -1.5145846329       12.3543265319       32.8273697066
  H         7.9979227125       14.2580750665       19.5635930922
  H         7.7939395912       12.5645791238       20.0661430230
  H         7.7458058625       13.0177024304       18.4076265863
  S         4.0745957841        9.3079016714       14.3723378301
  C         3.7155153303        6.7159482649       13.7489817496
  H         4.3797286414       10.7992571186       29.7650466988
  H         4.0363328118       10.3942300480       31.3956721615
  C         5.5155835864        9.0923700563       30.2786887967
  H        -4.8363211639       11.1055647025       25.7085908537
  H        -5.6727537193       10.8937750412       27.3432171796
  C        -6.2501793471        9.5964558573       25.8188896473
  S        -1.5690318999       18.0135767482       31.4203057715
  N        -1.8187153621       17.5567885750       32.9721312867
  C        -2.2785815155       15.4092414488       34.1398140668
  H        -2.2465614891       13.3617736156       35.0098931413
  C         4.2956499090        8.5420885743       12.7765935671
  N         3.9788092109        7.2560568300       12.6109072966
  O         3.6945167768        5.4645984499       13.9850911320
  H         6.3801768354        9.7919710761       30.3150439536
  H         5.5503493535        8.7536877951       29.2696238074
  C         5.7109165229        7.8530517471       31.2618492130
  H        -5.8856163260        8.9778746525       24.9797042900
  H        -6.5413111901        8.8931871131       26.5658164267
  C        -7.4063840301       10.4397491368       25.4509887654
  C        -2.5401792754       16.0473981923       35.3964826789
  S         4.7106583753        9.4793586030       11.3219820394
  C         4.0872506999        6.4730950321       11.3797494197
  H         5.5156171348        8.0963978887       32.2860461313
  H         4.7925589905        7.2586599333       31.0544745516
  C         6.9911999719        7.0046638335       31.1695595414
  H        -6.9589909933       11.1159343995       24.7266074500
  H        -7.7532361161       10.9548671560       26.3106402308
  C        -8.5665646127        9.7912719239       24.6314166606
  H        -2.3278029624       17.0283435808       35.3046120596
  C        -3.0849882530       15.7367672447       36.5838416168
  H         5.0988324424        6.5699408502       11.1585419256
  H         3.8424825721        5.3948755941       11.4909342118
  C         3.1822277137        6.9535748607       10.2717120151
  H         7.3912010845        6.9350121226       32.1903065131
  H         7.7719415043        7.3923291348       30.6175585577
  C         6.7392466248        5.5631294283       30.6788514366
  H        -8.8114837536       10.4666157044       23.8937857926
  H        -8.1527715835        8.8300612775       24.1958091206
  C        -9.7951798913        9.6852175705       25.4961994082
  S        -3.7520538606       14.1403295583       37.0980498905
  C        -3.2158971198       16.8773976167       37.5394998192
  H         3.5136685230        7.8594821356        9.7387105176
  H         3.0579415721        6.1236313151        9.5633550224
  H         2.1560366320        7.1585492806       10.6446025861
  H         7.6767368773        5.0752241215       30.8906915080
  H         6.4630244546        5.4847215815       29.6261160707
  H         5.9495202556        5.1437067596       31.3331385786
  H       -10.5875226610        9.0500504509       25.0482429820
  H       -10.2209870940       10.7213149360       25.6316046030
  H        -9.5897533139        9.3431369367       26.5047460112
  C        -4.0115084629       15.0326501277       38.5288441077
  N        -3.7040399381       16.3802286215       38.6429739104
  O        -2.9453573519       18.0037096257       37.2457966395
  S        -4.9297564026       14.3836208024       39.8813737004
  C        -3.9082341124       17.3109657374       39.7487106024
  H        -4.0968325665       18.3569239290       39.3392720173
  H        -4.7642908781       17.0188094140       40.4219497910
  C        -2.6193575777       17.4873194772       40.5182096187
  H        -1.7465347834       17.3961293606       39.8368751788
  H        -2.6153327765       18.4381156779       41.0789851033
  H        -2.6642525742       16.7645902836       41.2747657683
