352
i=
  H         5.2808496016        1.5507453588       12.3982725487
  C         4.4810449156        2.2622981965       12.6221823244
  H         4.9206618308        3.3360071346       12.7867576411
  C         3.3160738697        2.1028343922       11.5997136427
  C         4.0096648664        1.7453657819       13.9902591542
  C         3.8181656965        2.4390906945       10.1568696221
  H         2.5214396247        2.7779281867       11.8713941951
  H         2.9002884322        1.1138286391       11.5281136710
  H         2.9738266996        1.4285726041       14.0474329115
  H         3.9973885515        2.6734280955       14.6003395276
  H         4.6457501967        0.9737326457       14.3740732157
  C         4.6794279445        1.3190815923        9.5072596176
  H         2.9310371600        2.6638955695        9.7172462526
  H         4.3678953922        3.3709092061       10.1142754914
  C         5.3727479206        1.8129089655        8.2088565022
  H         4.0170976301        0.4518739115        9.2777980179
  H         5.3501676312        0.9025633990       10.2186913484
  C         6.6113135129        2.7584441878        8.3681275887
  H         4.6283353533        2.3233123541        7.5674512331
  H         5.6960913766        0.8456551796        7.8049393968
  C         7.8143721309        1.9666456803        8.8290547976
  H         6.7590470186        3.2451990262        7.4101205237
  H         6.3551964680        3.4540429164        9.1651816783
  C         9.0675847512        2.8928654224        9.0516331333
  H         7.9955121490        1.2812984745        8.0339781281
  H         7.5248729548        1.5149695362        9.7407518104
  C         8.6714533597        4.1696263460        9.7920434538
  C         9.5280480778        3.6008316816        7.8852717357
  C        10.1921576916        2.1129932425        9.7780790532
  C         8.9388108223        5.2878391660        9.0257656010
  C         8.1128112864        4.4742001182       11.0473439384
  C         9.4488082384        4.9426264412        7.7968027684
  C        10.0101305625        3.0139239782        6.7144817602
  H         9.8880170558        1.7385696858       10.7530522360
  H        10.2712556053        1.1692303548        9.2642173324
  C        11.5090923237        2.9130403706        9.9840302678
  S         8.3574210082        6.7922633318        9.8141097798
  C         7.8710681275        5.8426070439       11.2391323225
  H         7.9316322164        3.6092455453       11.6604887967
  C         9.8554017207        5.6031454587        6.6358935720
  H         9.8767947192        1.9543706513        6.7115659545
  C        10.3565531330        3.6209933747        5.5704137475
  H        11.4660116544        3.8397493679       10.4673979420
  H        11.9393856581        3.0893836566        9.0402879940
  C        12.5614468940        2.1173487832       10.7229450175
  C         7.3672540346        6.4948393710       12.4743931174
  C        10.3526574088        4.9618381236        5.5031601796
  H         9.7609125545        6.6571458295        6.5871546345
  C        10.7207975628        3.1705875607        4.3274750775
  H        13.4450039602        2.8450926804       10.7550186390
  H        12.8050909509        1.1504207253       10.2294045911
  C        12.0818551557        1.9296609918       12.1397371999
  C         7.3953263045        7.8965522407       12.7188339717
  C         6.9995744050        5.6526245217       13.6202851121
  C        10.7904230802        5.6369619708        4.2202258603
  C        11.0153934679        4.3015193578        3.5546441778
  S        11.0342936290        1.5952037966        3.6985620684
  H        11.3376240739        2.6786304798       12.3524076235
  H        11.7110157662        0.9494786266       12.2391777280
  C        13.2039357611        1.8927521400       13.1824686677
  N         7.5186049246        8.9334324787       11.8133618990
  C         7.1540670088        8.4265142580       14.0147460814
  C         6.8311542052        6.1376407048       14.8818792917
  H         6.8966571968        4.6171725127       13.4280197740
  C        12.0417496658        6.4913124285        4.4860264766
  C         9.5944492778        6.4144953641        3.6236729962
  C        11.2968368000        3.8650536420        2.2350074190
  C        11.3243724500        2.5195257973        2.1291299028
  H        13.7103726076        2.8347352585       13.3360022201
  H        13.9773536037        1.2046483642       12.7950841259
  C        12.7155557573        1.3494168651       14.5215015065
  S         7.3227794475       10.3777798839       12.5695783346
  N         7.1100517525        9.7749855092       14.0168705305
  C         6.9201048609        7.6272845372       15.1746508199
  H         6.7685003641        5.4215957273       15.6738615184
  H        11.7780609920        7.1349452229        5.3314126831
  H        12.2084899398        7.1662562644        3.6110961760
  C        13.2438320364        5.6959027301        4.9589922949
  H         9.4299047288        7.2517745579        4.2520771467
  H         9.9661237935        6.7802775914        2.6417712342
  C         8.3173228254        5.6702309522        3.4904279176
  H        11.5416647389        4.5392948360        1.4646207480
  C        11.5437311450        1.7064231984        0.8903973215
  H        11.8355661222        0.6845081999       14.3411113664
  H        13.5412436304        0.7175172796       14.8410926622
  C        12.2270712031        2.4132780799       15.4286818722
  C         6.6743364144        8.2671438860       16.4202410049
  H        12.8545346422        5.1033941090        5.7701081006
  H        13.4750709750        4.8926820204        4.3022358460
  C        14.3267286414        6.7026834762        5.2688125797
  H         8.1173900408        5.0957748211        4.4169661935
  H         8.4495636983        4.8771203736        2.7252056502
  C         7.2288909778        6.4860790748        2.8085982135
  C        11.7179424243        0.2684193496        0.8642060343
  C        11.6229900250        2.3954409307       -0.3917278480
  H        11.2156915676        2.2427611831       15.7266712262
  H        12.2894908056        3.3975211669       14.8944041177
  C        13.0307303051        2.6070010425       16.7113937823
  H         6.8783566928        9.3612233195       16.5253620848
  C         6.5081621870        7.7679451749       17.6632338854
  H        14.0122434118        7.5134019234        6.0100580301
  H        14.4411436424        7.2817122392        4.3671403842
  C        15.7487136050        6.0894319014        5.5354560853
  H         7.0386434458        7.3170465798        3.5118547372
  H         7.7499132980        6.8695271368        1.9407179555
  C         5.9554135164        5.8130403619        2.3326197290
  N        11.3820873012       -0.6062016633        1.9004168181
  C        11.8770222301       -0.3678734500       -0.3474483109
  C        11.8166693914        1.6994601880       -1.6088743204
  H        11.3163674403        3.3804774760       -0.3752940330
  H        14.0765420895        2.6980810762       16.6160671317
  H        12.9318935021        1.7071792312       17.3397195901
  H        12.5963724718        3.4258497767       17.3080766971
  S         6.1555360511        6.1486318540       18.1167338086
  C         6.5038555841        8.7520862904       18.8056251020
  H        16.1418723409        5.5021288483        4.6989982356
  H        16.3340062195        6.9798193855        5.3912694612
  C        16.1636196595        5.6784475812        6.9532813743
  H         5.3807845048        5.4714232556        3.1864982048
  H         6.3333149630        4.9603959922        1.6892684667
  C         5.3363379997        6.7690064713        1.3539668658
  S        11.4857382762       -2.0993910485        1.4338983019
  N        11.9638594113       -1.7450297296       -0.1293189831
  C        12.1113660759        0.2527872525       -1.5861586021
  H        11.8202062593        2.2851095514       -2.5462601569
  C         6.1703749907        6.8150241596       19.7855057492
  N         6.2676280457        8.1246464381       19.9845754220
  O         6.6176626538        9.9915970691       18.7652993974
  H        16.1435899470        6.6137349800        7.5667208812
  H        15.3505101080        5.0040287781        7.3833552957
  C        17.5687114895        5.0457847473        7.0406614076
  H         6.1431991111        7.3342116305        0.7935998670
  H         4.8318058907        6.1209563840        0.6114509569
  C         4.3234638836        7.7207692017        1.9633189919
  C        12.4573030969       -0.5270169939       -2.8184250767
  S         5.9952021975        5.6892285614       21.2388258511
  C         6.2469034301        8.7885817100       21.2722648572
  H        17.6905543002        4.4315928098        7.8805583633
  H        17.5765296288        4.3349491790        6.2008333428
  C        18.6581162391        5.9990773882        7.1327049270
  H         4.6306292565        7.9967551108        2.9667065346
  H         3.2582173705        7.2596635562        2.0521685375
  C         4.1843835143        9.0196387884        1.2790656048
  H        12.6221423341       -1.5321246686       -2.7505289055
  C        13.0787655856       -0.1479473947       -3.9613663996
  H         5.6789015063        8.1143446483       21.9655268281
  H         5.6455487139        9.7070658718       21.2081016236
  C         7.6557428273        9.1731238831       21.6885116156
  H        19.3880026096        5.5289402774        7.6677667546
  H        18.3693085997        6.8547129763        7.7220277185
  C        19.5270012060        6.2951274082        5.8391763901
  H         5.1865770376        9.2602128503        0.8622932633
  H         3.5116776691        8.9986077755        0.4890114606
  C         3.7603194542       10.0440140128        2.2528421225
  S        13.4537450528        1.4019716831       -4.4899871682
  C        13.1517679491       -1.2189330191       -5.0176638401
  H         8.3084937954        8.3740463544       21.5648519247
  H         7.8320387342        9.3960296455       22.7135559142
  H         8.0948852605        9.8869174592       20.9740698056
  H        19.7593357717        5.4939824505        5.1963830768
  H        19.1884070713        7.1782311060        5.3302439470
  H        20.4731044228        6.5738384343        6.2759945725
  H         2.8296512196        9.6857752546        2.8053924828
  H         4.6570140051       10.0796728953        2.9016377966
  H         3.6117809130       11.0286219786        1.7993521807
  C        13.8850939975        0.7023647660       -6.0473119263
  N        13.8390611919       -0.6345060526       -6.0462757034
  O        12.7041180411       -2.3862138913       -4.8454604296
  S        14.5721293606        1.6044147354       -7.3610212186
  C        14.1019250822       -1.3963935334       -7.2054721052
  H        14.1231258080       -2.4893026463       -6.9240171683
  H        14.9862020361       -1.0440094144       -7.6345900664
  C        12.8421680066       -1.3058534789       -8.1186779368
  H        11.9210199079       -1.5531926163       -7.5443683422
  H        12.9186678387       -2.0205573708       -8.8879870291
  H        12.7155106843       -0.3016793043       -8.6097893350
  H        -3.4804338481       15.1195423303       16.4876335460
  C        -3.0860307230       14.1573363986       16.4783191333
  H        -3.9347028043       13.6214401127       16.8151522139
  C        -1.7972650971       14.0240870702       17.3438138451
  C        -2.9160044220       13.7128555145       15.0532041775
  C        -2.1625815590       14.1924674615       18.7978052923
  H        -1.4791667828       12.9931089422       17.1394018230
  H        -1.0806477171       14.7339119343       17.0600817551
  H        -2.5664474084       12.6509388632       14.9286013281
  H        -3.9506613385       13.8552827647       14.6310016240
  H        -2.2153322153       14.3194062648       14.5064630383
  C        -2.0908758862       12.8920006726       19.6434013254
  H        -3.2190508061       14.4663479759       18.8084430019
  H        -1.5721288649       15.1141073677       19.1526274845
  C        -2.6533407127       13.0426318499       21.0220415161
  H        -2.5882976895       12.0406442049       19.1081540182
  H        -1.0365620920       12.6300510533       19.6951602360
  C        -1.7149669175       12.4902544430       22.0966417969
  H        -3.6276532701       12.5992652672       20.9786488484
  H        -2.8193340477       14.1293166411       21.0902852047
  C        -0.5328764760       13.4243073928       22.4276350167
  H        -2.2125882712       12.2358895090       23.0423811027
  H        -1.3947957067       11.5810115053       21.6399465065
  C         0.6335186766       12.8453087093       23.2061833804
  H        -0.0819422623       13.8554989414       21.5370497370
  H        -0.9047621714       14.2402232604       22.9339593968
  C         1.0957581627       11.4916001366       22.6484089132
  C         0.2582421115       12.1889624893       24.4952767500
  C         1.8681531978       13.7812581452       23.2594197061
  C         0.8511986984       10.3934871870       23.4368911240
  C         1.6656811140       11.0373233574       21.4380955722
  C         0.3408157710       10.8123409824       24.6793658617
  C        -0.0915592312       12.7993878611       25.7128103608
  H         2.1671195160       14.1773714676       22.2914302949
  H         1.6603085621       14.6497567208       23.8046160353
  C         3.2045240670       13.0657385249       23.6771336499
  S         1.1781117062        8.8390631225       22.7143352378
  C         1.7772208599        9.7240560290       21.3176815663
  H         2.0137988793       11.7539275328       20.6959697229
  C         0.0379087468       10.2134419789       25.8897340344
  H        -0.1720577167       13.8852992353       25.7409306164
  C        -0.3735970831       12.2287373240       26.9124363139
  H         3.4333257001       12.2814272516       23.0600177001
  H         2.9594803947       12.5741943095       24.5942951576
  C         4.4337889538       14.0281423000       23.8115080920
  C         2.2755170551        9.0027327611       20.0719425613
  C        -0.3462599906       10.8915652784       27.0645917310
  H         0.3921735708        9.2038976836       25.8932028906
  C        -0.7293568834       12.6587147557       28.1621724062
  H         5.2496131864       13.6133822523       24.3266384171
  H         4.1838165068       14.9463856648       24.3675573231
  C         5.0888299159       14.3226885904       22.4590432852
  C         2.4095259665        7.6200629848       19.9269991809
  C         2.8418085306        9.8466947173       18.9391906713
  C        -0.7436276611       10.2382162954       28.4087062960
  C        -0.9575322995       11.6358883611       29.0534172726
  S        -0.8133801143       14.2419193360       28.8574298218
  H         5.9803397744       14.9431297249       22.7289186858
  H         4.4198694576       14.8727322161       21.7206875414
  C         5.7488328243       13.0841424400       21.8676930866
  N         1.9361650694        6.6724607799       20.8989068705
  C         2.7372025985        7.0188795833       18.7279389219
  C         3.1324754460        9.1509664218       17.8131597850
  H         2.9937121173       10.8763023010       18.9592210253
  C         0.3908085992        9.4990664401       28.9383773028
  C        -2.0812727109        9.4250802339       28.2412319181
  C        -1.3627054958       12.1139944892       30.3445939690
  C        -1.2951052829       13.4972933152       30.3679548595
  H         6.6031680385       12.8433439731       22.4460892156
  H         5.0889299043       12.1775548797       21.8981413589
  C         6.1440181739       13.2089502730       20.3443473835
  S         2.0599183055        5.1977297655       20.1724497206
  N         2.7808501367        5.6444583269       18.8151873685
  C         2.9812837579        7.7286031601       17.5595787197
  H         3.3141221444        9.7247108319       16.9497930633
  H         0.7358091903        8.8090990101       28.1916976799
  H         0.0468297784        9.0377493145       29.9120247307
  C         1.6647669253       10.2689119229       29.2737509723
  H        -2.0157171194        8.7174371582       27.4943024427
  H        -2.1662469185        8.7567791592       29.0879755679
  C        -3.3147033918       10.3341398577       27.9157784820
  H        -1.5393237663       11.4822386008       31.2232370856
  C        -1.6891904384       14.3442872838       31.5381919680
  H         5.6736407498       14.0913430306       19.8106006780
  H         5.6424926050       12.4086224017       19.8135135527
  C         7.6123437000       13.1788510108       20.1667855671
  C         3.3309917845        6.9155579677       16.4094804923
  H         2.1490932705       10.6714892224       28.3522749116
  H         1.4224007790       11.2100436553       29.8103354257
  C         2.6509840073        9.4396166068       30.0297742934
  H        -3.1597218895       11.0733306252       27.1675481056
  H        -3.5565609505       11.0056394172       28.7709305244
  C        -4.5891162790        9.6187798947       27.6078234720
  C        -1.8185316817       15.7536424398       31.6025967147
  C        -1.8836595169       13.6361209763       32.7846466422
  H         7.9477486754       14.0725422185       20.6386279473
  H         7.9594397340       12.2866596716       20.6936355536
  C         7.8807281707       13.1743713451       18.6689407140
  H         3.2496725913        5.8515444240       16.4661834325
  C         3.5886780444        7.3335627857       15.1399306200
  H         3.1846404027        8.8496835917       29.3100597095
  H         2.2038860149        8.8561989793       30.7852465901
  C         3.6992643624       10.1978757208       30.7141908851
  H        -4.4830858674        8.9804371060       26.7659844381
  H        -4.8409773261        9.0485452556       28.4311004097
  C        -5.7187714598       10.6410180565       27.4488236857
  N        -1.5871230396       16.5899343315       30.5317830439
  C        -1.9659541182       16.4204246362       32.7993382388
  C        -2.1717624452       14.2885311737       33.9435978362
  H        -1.6455153049       12.5490041702       32.9384126209
  H         8.5540612113       14.0470463649       18.4135596159
  H         8.2383419670       12.2002574104       18.3687814348
  H         6.8763455456       13.3004892911       18.1470267837
  S         3.8280174853        8.9330408659       14.6116357277
  C         3.6672090017        6.2992047157       14.0557663179
  H         3.8165845868       11.2086433209       30.2348267289
  H         3.4450857513       10.3269708461       31.7452600573
  C         5.0194809080        9.4460102152       30.7595227535
  H        -5.4129878652       11.4206820031       26.7584645929
  H        -5.8051030457       11.1728807001       28.4112649958
  C        -7.0203838790       10.1401370095       27.0166057600
  S        -1.4656623184       18.1038929599       31.0754664820
  N        -1.8544866803       17.8074363931       32.5875961899
  C        -2.3436013070       15.7879634683       34.0049293301
  H        -2.2221877070       13.8221471997       34.8997894533
  C         3.9793832293        8.2692570965       12.9510795213
  N         3.8892289548        6.9089231773       12.8935009775
  O         3.4972931750        5.1005704838       14.2144000677
  H         5.8220666741        9.9537148099       31.2635820491
  H         5.3165642258        9.1450582559       29.7863446578
  C         4.9628412606        8.1242897170       31.5094066872
  H        -7.0436041938        9.0891737529       26.7865477488
  H        -7.6881158020       10.1678877510       27.9775880193
  C        -7.7052454365       10.9677149958       25.9882641547
  C        -2.5606551323       16.5953715545       35.1492157100
  S         4.1558417940        9.2365202545       11.4152248967
  C         3.7918300126        6.1676574054       11.6508970319
  H         4.6009639058        8.3281996533       32.5420345619
  H         4.2668510975        7.4990063523       30.9770825370
  C         6.3392042320        7.4215181927       31.6202199302
  H        -7.0176106861       11.2692554054       25.2521733609
  H        -8.1590549288       12.0154764018       26.2272676399
  C        -8.7300062058       10.1547548298       25.1119914260
  H        -2.0910428719       17.6196291277       35.0050233658
  C        -3.1141532947       16.3524324580       36.3695779324
  H         4.6208383618        6.4339632045       11.0423352276
  H         4.0103605066        5.1003194142       11.6156328549
  C         2.3669435061        6.3826607545       11.0855944028
  H         6.4470496081        6.9274321902       32.6062136254
  H         7.1534411187        8.1948291874       31.6553983664
  C         6.4616893176        6.5117107584       30.4209345131
  H        -9.0116689283       10.6894884895       24.2236023529
  H        -8.4790894370        9.1653846682       24.6721425902
  C        -9.8904804888        9.9993093700       26.0434552634
  S        -3.9795898641       14.9170628215       36.9002026791
  C        -3.0556600518       17.5098592258       37.3353556277
  H         2.4307256409        6.8928255190       10.1386987895
  H         1.7040468595        5.4752792220       11.0462426844
  H         1.7446194335        7.0539963135       11.6465860007
  H         7.4004843813        6.1037552586       30.3863908975
  H         6.3852348621        7.1194819988       29.5658167914
  H         5.6714712491        5.8091230276       30.2889930565
  H        -9.6525751025        9.2959962067       26.8607770372
  H       -10.7766745348        9.6159830686       25.5515170963
  H       -10.2737575968       10.9252218419       26.4774505665
  C        -4.2180149025       15.8077668654       38.3720458127
  N        -3.7517302335       17.1030077437       38.3902257998
  O        -2.6665233139       18.6485590631       37.0816379335
  S        -4.9419826179       15.0822272587       39.7729985264
  C        -3.7531987401       17.9762404974       39.5192675608
  H        -3.9281313213       18.9890521446       39.2153922294
  H        -4.5352307518       17.8782163535       40.2168069841
  C        -2.3951840206       18.0137236505       40.1822629459
  H        -1.5050875478       17.7349751302       39.5876937183
  H        -2.1106795336       19.0965560382       40.4052131372
  H        -2.3855212430       17.3421515158       41.0608770990
