352
i=
  H         4.6015253375        1.0062739340       12.8471106047
  C         4.7136007022        2.0518659665       13.0319425341
  H         5.7886589718        2.3334035308       13.0037999987
  C         3.9437182163        2.7352364757       11.8734487573
  C         4.0582176651        2.2094535737       14.3508595222
  C         4.7319388406        2.8908350485       10.6124557705
  H         3.5048735656        3.6875174051       12.2136662316
  H         3.0964660042        1.9836443387       11.7482052503
  H         3.2720518106        1.4397854278       14.5054920132
  H         3.5075150613        3.1263715001       14.4415892891
  H         4.6483259661        1.9966970323       15.2125168218
  C         4.9966541272        1.5671452950        9.8179436476
  H         4.2368178751        3.5628023469        9.9797206300
  H         5.6674155228        3.5242177924       10.8405757482
  C         5.7108929470        1.7976702453        8.3929272676
  H         4.1333867311        0.9161011828        9.6456680583
  H         5.6479277143        0.9471888563       10.4744624157
  C         6.9726326383        2.6139002896        8.5120267621
  H         5.0248729172        2.3144021592        7.7062597872
  H         5.8393981897        0.9146758052        7.8165962183
  C         8.2265244517        1.9688772377        9.1066922003
  H         7.1973807197        2.8412169727        7.4800328080
  H         6.7832515766        3.5263699230        8.9911150295
  C         9.5072556489        2.9164638732        9.2645875999
  H         8.6510205202        1.1287518487        8.4768125972
  H         8.0435686031        1.4412658516       10.0360239579
  C         9.1258204856        4.2832485318        9.8858299398
  C         9.8982854265        3.5928485016        7.9753463179
  C        10.6895513349        2.1844517164        9.8904735900
  C         9.3751015691        5.3657677858        9.1033774857
  C         8.4482760574        4.6799408722       11.0558031851
  C         9.9165425509        4.9456164729        7.9131881691
  C        10.2530364282        2.9979324716        6.7516781943
  H        10.3836301574        1.9170422738       10.9051781682
  H        10.9228860031        1.3134647066        9.3319922078
  C        11.9937602944        3.0796613614       10.1381050516
  S         8.9960143289        6.8946352568        9.8564897998
  C         8.3510613062        6.0651386019       11.1434949163
  H         7.9812361238        3.9814161814       11.6963909216
  C        10.2277184143        5.6509899645        6.7495898624
  H        10.2947016269        1.9322770569        6.7349361953
  C        10.6212347633        3.5959869835        5.6498459124
  H        11.5511340077        4.0263511452       10.4606642905
  H        12.4962417052        3.3185869689        9.1391440983
  C        13.0497994623        2.6006915928       11.1313939632
  C         7.7367437533        6.8231672019       12.3308366918
  C        10.6325004983        4.9652774542        5.5400947368
  H        10.1667237226        6.7375405448        6.7392321888
  C        10.9256230762        3.1940482770        4.3855744597
  H        13.9721304305        3.1390083722       11.0400221267
  H        13.4473764226        1.5864251361       11.0050635553
  C        12.4837366856        2.9491839059       12.5167881842
  C         7.9905791300        8.1909665936       12.7277719297
  C         7.1679167212        5.9886870759       13.4296517327
  C        11.0234653712        5.6759668149        4.2538481028
  C        11.1683716573        4.3022992422        3.5711335208
  S        11.0267084615        1.7117787990        3.6267072596
  H        12.6898380560        3.9795159450       12.6450918701
  H        11.3880352802        2.8764579445       12.6393307566
  C        13.2626249128        2.3640761700       13.6574292943
  N         8.4094044147        9.2118469193       11.8817229555
  C         7.7142379924        8.7079581905       13.9855107616
  C         7.1220910862        6.4718894166       14.7537617644
  H         6.8098653137        4.9839209494       13.2460240322
  C        12.3713138656        6.4434452021        4.3259246924
  C         9.7614262941        6.3818725742        3.6586780633
  C        11.3688791452        3.8182405620        2.2488023951
  C        11.4142115570        2.4542513035        2.0974087819
  H        14.2056002719        2.8930647538       13.7713098313
  H        13.5066007522        1.3100147283       13.4477575104
  C        12.5780250406        2.4130132344       14.9977424620
  S         8.3904650284       10.7081748402       12.5939771842
  N         7.8624663376       10.0895217602       14.0420273010
  C         7.4393673510        7.8985419981       15.1121341976
  H         6.7797733412        5.8253151673       15.6028231892
  H        12.2662713750        7.3566572945        4.9503987077
  H        12.6084780859        6.7133023828        3.2970689237
  C        13.5485045467        5.5265582157        4.7497936992
  H         9.4755819767        7.1808350434        4.3167031271
  H         9.9606508760        6.8650103744        2.7414422822
  C         8.5565145462        5.4861529555        3.4893036812
  H        11.5293804113        4.4667969737        1.3857601494
  C        11.6418394710        1.7198048595        0.8248274648
  H        12.1087771623        3.3943536782       14.8871284382
  H        11.6674979724        1.7438385003       15.0389919089
  C        13.6183023887        2.1864000443       16.1213871165
  C         7.3709847516        8.5210926077       16.3580859094
  H        13.2773023286        5.0000442747        5.6816655589
  H        13.6971316292        4.7158757295        4.0243524997
  C        14.9055304901        6.1824684958        5.0150280558
  H         8.1778870818        4.9783262725        4.3913678734
  H         8.8859791618        4.6861302666        2.7507270888
  C         7.3873300426        6.2762383539        2.8494617261
  C        11.9003802900        0.3288747687        0.6906188630
  C        11.7051533405        2.3885424109       -0.4936568508
  H        14.4677129584        2.8168083845       15.9481877583
  H        14.1589201445        1.2083146801       16.0706794426
  C        13.1025211774        2.3424480229       17.4731576052
  H         7.5971594792        9.5707683089       16.3975266255
  C         6.9307615854        8.0504296548       17.5316996585
  H        14.6302230507        7.0176216951        5.6346545268
  H        15.1986617281        6.5879938257        4.0368202001
  C        16.0097007203        5.2902687996        5.6220771857
  H         7.2927209794        7.2600460267        3.3517859441
  H         7.6960151069        6.5725584655        1.8549500964
  C         6.0933441660        5.4996260305        2.8747946584
  N        11.6857458803       -0.5212542059        1.7690102785
  C        12.1630063635       -0.3194829168       -0.5163656850
  C        12.0842606357        1.7785708204       -1.6711082432
  H        11.5874921974        3.4713247940       -0.5533725696
  H        12.0421297689        2.2817930534       17.4599026014
  H        13.3214566447        3.3461408690       17.9749214350
  H        13.4610259735        1.6877045818       18.1413327016
  S         6.2645874379        6.5035233112       18.0063642155
  C         7.1442985614        8.8894107957       18.7160746100
  H        15.5185361058        4.5569841950        6.2971153671
  H        16.6097499590        4.7753405175        4.7934237841
  C        16.9275270248        6.2377761466        6.3155546197
  H         5.6839731333        5.6112258881        3.8509643255
  H         6.3359697917        4.4349813339        2.6734050929
  C         5.0468482344        6.0232639531        1.9225033784
  S        12.0551900708       -2.0228658795        1.2507454230
  N        12.2345421693       -1.7057708535       -0.3282873259
  C        12.3188839656        0.2895707045       -1.7702006194
  H        12.1232220486        2.3816059485       -2.5811972350
  C         6.0815330872        7.1053360733       19.5297422295
  N         6.4121740735        8.3908739912       19.7398743511
  O         7.5938126577       10.0347760974       18.6952447213
  H        17.2565297544        6.9227552644        5.5736481532
  H        16.3933627551        6.7423096358        7.0902322293
  C        18.0376174243        5.3828272790        6.8128853536
  H         5.4967110771        5.8095323177        0.9219508445
  H         4.2738385955        5.2240717978        2.0007399659
  C         4.5870789191        7.4320319202        2.1688136482
  C        12.5438769264       -0.5090269225       -2.9320609276
  S         5.3617277692        6.4031601588       21.0353494736
  C         6.3351899987        9.0814319947       21.0235170465
  H        17.5860434041        4.7724815411        7.5684823176
  H        18.4612629917        4.7404614844        6.0540077789
  C        19.0712724455        6.1357182614        7.5615943407
  H         5.1070542206        7.7737997607        3.0783970881
  H         3.5286286157        7.5895747661        2.3608667893
  C         5.1388820850        8.3742256886        1.0354815033
  H        12.5104099970       -1.5954757235       -2.8359115076
  C        13.0798844106       -0.1777432575       -4.1288312848
  H         5.3993189663        8.7898122790       21.4815088438
  H         6.3288760255       10.1798432511       20.8958359700
  C         7.5231094722        8.8076232152       21.8899850620
  H        19.3256104362        5.5450455938        8.4122660137
  H        18.6419996757        7.1582086331        7.8140521835
  C        20.4162154772        6.3401435500        6.8674031590
  H         6.0471106636        8.8524067933        1.2301476601
  H         5.3122610505        7.8161648569        0.0969473024
  C         4.1832467128        9.4589968099        0.6391638234
  S        13.8204527302        1.3176007755       -4.5479189080
  C        13.1549448107       -1.2015418793       -5.2069992793
  H         7.1903444991        8.3084090695       22.8145999720
  H         8.0353988126        9.7223346552       22.1625395873
  H         8.1746167924        8.1728805353       21.3351505666
  H        20.7917452936        5.2823637321        6.8843482067
  H        20.3411403081        6.6555940755        5.8696541715
  H        21.0418241659        6.8984338653        7.4679002294
  H         3.7990132951       10.0359997273        1.4872879044
  H         4.7552695746       10.1486189917       -0.0471413853
  H         3.2166524866        9.1822616395        0.1498217802
  C        14.1577376240        0.6111521314       -6.1518123941
  N        13.8779453268       -0.7053011513       -6.2578322903
  O        12.8296616985       -2.3284936117       -5.0323904260
  S        15.2840830549        1.3432043699       -7.2608351189
  C        14.1488897484       -1.4930517961       -7.4813135781
  H        14.3496811799       -2.4992415792       -7.0834970930
  H        15.0670702945       -1.1753791516       -7.8127067982
  C        13.0228834503       -1.4412820265       -8.4876903408
  H        13.3646132813       -0.8338112612       -9.2915330971
  H        12.2180236183       -0.9094266671       -8.1355255689
  H        12.8169858516       -2.4861585159       -8.8585533683
  H        -2.8303205986       15.2670005018       16.3346326603
  C        -2.8684349034       14.2440900426       16.5503565585
  H        -3.9008057903       14.1000908909       16.7377724758
  C        -2.0978431413       13.9789686138       17.8407044730
  C        -2.5609167795       13.3934031190       15.3274452258
  C        -3.0232790196       13.4167901737       18.8849181155
  H        -1.3788071068       13.2067505445       17.6380909988
  H        -1.6183204973       14.9453765607       18.1140612945
  H        -1.9411708208       13.8891447536       14.4997027479
  H        -2.0194889167       12.4689174899       15.5658324495
  H        -3.4654485685       13.0736069070       14.8796018945
  C        -2.1779670021       12.8572181827       20.0053393506
  H        -3.6199771698       12.5676305304       18.6441428400
  H        -3.7139161437       14.1348865058       19.4350057505
  C        -2.6401596416       13.2949480422       21.3704627874
  H        -2.2536243135       11.8641313182       20.1165784895
  H        -1.1295800937       13.0701641597       19.8559506347
  C        -1.5939497483       12.8113963496       22.3838860418
  H        -3.6077327872       12.8380787447       21.5286450181
  H        -2.7433679198       14.3612074539       21.2649447149
  C        -0.3862831721       13.7083987580       22.5769378421
  H        -2.0107499576       12.6736261850       23.3403948217
  H        -1.2736174428       11.7741696563       22.0735744109
  C         0.8054992382       13.0087277328       23.2221089354
  H        -0.0732832137       13.8591577120       21.5415648042
  H        -0.6160481589       14.6593696920       23.0577057987
  C         1.2536200393       11.8028350195       22.4425083154
  C         0.4177227664       12.3233381504       24.4474159577
  C         2.0350633806       13.9334059974       23.4025436546
  C         1.0437118911       10.6483093459       23.3026986008
  C         1.7094821699       11.3981758696       21.1790767555
  C         0.5954652897       11.0031845363       24.5506803505
  C         0.0057682502       12.8621903641       25.6305921110
  H         2.1813813074       14.4990254250       22.4905261406
  H         1.7644607569       14.5918221912       24.2500558285
  C         3.3827943508       13.2252999705       23.6580097918
  S         1.4498214766        9.1229978011       22.5476700645
  C         1.9744352068       10.0505664961       21.1471015506
  H         1.6796344037       12.0143163606       20.2951830476
  C         0.2613920199       10.3251649437       25.6999285373
  H        -0.1324540806       13.9277132686       25.6086049391
  C        -0.3024983473       12.2253501989       26.7669499646
  H         3.6394295297       12.6783159850       22.7455910729
  H         3.2573981919       12.5049409431       24.4808769600
  C         4.5603697228       14.1726522412       24.0028761172
  C         2.5431663795        9.4305070450       19.9022460614
  C        -0.2447777787       10.8731450728       26.8954682938
  H         0.3444711683        9.3112830513       25.6797691506
  C        -0.6602053632       12.6070133400       28.0403579602
  H         5.4119504985       13.6085620215       24.2482946999
  H         4.5742387883       14.7992757061       24.8791085132
  C         4.9350847709       14.9415255967       22.7732059562
  C         2.5495765342        8.0639058531       19.6170934807
  C         3.0383974403       10.3159475352       18.7726090808
  C        -0.7503346165       10.1836820590       28.1388971718
  C        -0.9453312610       11.5414620263       28.8190781903
  S        -0.8177811123       14.0454584375       28.8623949790
  H         4.8991876029       15.9898315366       23.0250055299
  H         4.3045621508       14.7127562346       21.9561772915
  C         6.3508620033       14.5687307600       22.2762124722
  N         2.1106129668        7.0491597144       20.4729676536
  C         2.9352491753        7.5075132364       18.4079161694
  C         3.4407344890        9.7274015094       17.5466151072
  H         3.2109143866       11.3717587869       18.8627041211
  C         0.3698612491        9.3537382211       28.8219221460
  C        -2.0955366117        9.4197497535       28.0652493502
  C        -1.3358735039       11.9536672799       30.1339281809
  C        -1.2999043241       13.3188154460       30.2503211297
  H         6.6993275841       15.4929788608       21.7515579592
  H         7.0185157259       14.2938962774       23.0644050733
  C         6.2984610970       13.4625725186       21.2517200879
  S         2.2271334448        5.5570331598       19.7339135132
  N         2.8824464789        6.1067910408       18.3951453335
  C         3.3466271402        8.2989894470       17.3203914032
  H         4.0801518535       10.2933404053       16.8967753429
  H         0.6604686298        8.4848945988       28.1911475925
  H        -0.1386964578        8.9403668396       29.6839875283
  C         1.6195293445       10.2333612382       29.1394100258
  H        -2.0412782186        8.5646581596       27.4323943314
  H        -2.4291158773        9.2393884974       29.0828123268
  C        -3.1296932454       10.3560745997       27.4603632414
  H        -1.6277819762       11.2377577886       30.9074265748
  C        -1.6867568532       14.0405854711       31.4349787923
  H         5.5352449949       12.7356482989       21.6188891314
  H         7.1795082741       12.9066583751       21.2270612613
  C         6.0137917631       13.9900291473       19.8552242469
  C         3.6040987077        7.6135492243       16.0372645340
  H         1.8860032966       10.8109558661       28.2195672673
  H         1.3680114493       10.8681705544       29.9333964138
  C         2.7338966851        9.4822191376       29.7932731739
  H        -2.8558846587       10.7035326545       26.4296409621
  H        -3.4377025778       11.2630434453       27.9568368758
  C        -4.4590151356        9.6172070230       27.3405940220
  C        -1.7166881698       15.4544584605       31.5672900344
  C        -1.8110871586       13.2351472392       32.7160371254
  H         5.3779273833       13.2396764272       19.3724413999
  H         5.5105102893       14.8859353914       19.9304325793
  C         7.2994998812       14.1717477443       19.0820011150
  H         3.4883761955        6.5353432056       16.0516361287
  C         3.8811257284        8.1095699155       14.8448112292
  H         2.7979856332        8.5145461007       29.3577769707
  H         2.4849720201        9.0009170544       30.7835918512
  C         4.0421176003       10.1271236510       29.7425107221
  H        -4.2837779661        8.6503440744       26.8723853178
  H        -4.9339653270        9.4384824296       28.2531001609
  C        -5.4659231857       10.4248066146       26.5596475199
  N        -1.5041395175       16.3875924477       30.5395609934
  C        -2.0190913394       16.1009767402       32.7442676537
  C        -2.0603571116       13.9305694522       33.9106149467
  H        -1.6994628219       12.1635770164       32.7637544773
  H         8.0393097293       14.8178491605       19.5946357153
  H         7.6838911050       13.1790807507       18.8475573278
  H         7.1505106041       14.6424415002       18.1415069034
  S         4.2467516163        9.7746435184       14.4493394432
  C         3.9411622380        7.1691394864       13.6689827136
  H         4.0481013227       10.8818578554       28.9556775574
  H         4.1867512675       10.6633280072       30.7248536158
  C         5.3180807645        9.2568807548       29.4764509805
  H        -4.8683008224       10.9398466923       25.8037124060
  H        -5.9914864319       11.1097147776       27.2281708972
  C        -6.4570423977        9.5399940762       25.7669757361
  S        -1.6616015111       17.9188734544       31.1381634679
  N        -1.9318458018       17.5078595763       32.6784776185
  C        -2.2956913997       15.3908527107       33.9570281224
  H        -2.0492757732       13.3378507510       34.8449802182
  C         4.5206665246        9.1641699786       12.8023543582
  N         4.3403605423        7.8615286964       12.6101071232
  O         3.7638872925        5.9835829089       13.7090781397
  H         6.1279627491        9.9282101505       29.0884963864
  H         5.0924375363        8.4620191912       28.8078446956
  C         5.9304054308        8.4319491218       30.6244412242
  H        -6.0051394654        8.7429671694       25.1941301340
  H        -6.9311846170        8.9466159020       26.5347689004
  C        -7.5092607339       10.3436240346       25.0614915211
  C        -2.6008837490       16.1642315041       35.0952250475
  S         4.9753394845       10.1017189529       11.4504149955
  C         4.5780254642        7.1416255236       11.3434002682
  H         6.9451841251        8.0739543825       30.3974047465
  H         6.0581603800        9.0477646383       31.4948032721
  C         5.1730410687        7.2403471244       31.0206630256
  H        -7.1672743745       10.7553889230       24.1050593940
  H        -7.7703311893       11.2226092716       25.6454660256
  C        -8.7362539877        9.4635996339       24.9023719696
  H        -2.0790075509       17.1261606517       35.0549291804
  C        -3.0922314746       15.8452397558       36.3494526041
  H         5.2421885838        7.6120970993       10.5490896853
  H         4.9144298966        6.1581790984       11.6567977211
  C         3.1781409611        6.9349499750       10.6300619614
  H         5.0501393197        6.5793713511       30.1842202118
  H         4.2122837647        7.5139081892       31.3840408804
  C         5.8378347815        6.4637090077       32.1495139061
  H        -9.2660502275        9.8278966290       24.0080509381
  H        -8.5396683860        8.3859576995       24.5898921060
  C        -9.7938252790        9.5909222538       26.0489714224
  S        -3.7599436081       14.2924568207       36.8078324439
  C        -3.2239902674       16.8913074484       37.3158015733
  H         2.3603056174        7.4330895511       11.1195618747
  H         3.2885635085        7.3381859953        9.6323633936
  H         2.9448773591        5.8890880787       10.5763337605
  H         6.8759782891        6.2103874150       31.8643451218
  H         5.3490025402        5.5118157740       32.2299312750
  H         5.8232676695        7.0846058125       33.0921840702
  H       -10.7858354573        9.4243351795       25.5940826034
  H        -9.7726063809       10.6106896453       26.4494667280
  H        -9.5860039400        8.8742939814       26.8303439841
  C        -4.1835613852       15.0478391966       38.3206349318
  N        -3.8497517071       16.3301040000       38.3721525429
  O        -2.8721733846       18.0722392997       37.1499377997
  S        -5.0023861190       14.2168693303       39.6846321631
  C        -4.1187658262       17.1803239663       39.5476063402
  H        -4.3948640684       18.2660374686       39.3964644711
  H        -4.9503961038       16.7421135894       40.1284478442
  C        -2.9453072818       17.2208119368       40.5150298878
  H        -2.9585377514       18.2658659324       40.8132429643
  H        -3.0716138501       16.6365344663       41.4119002258
  H        -2.0321315292       16.8652269700       40.0301633715
