352
i=
  H         4.1093692135        1.2891131313       12.1746401178
  C         3.8277368894        2.3469740322       12.4304675433
  H         4.7205662680        2.9473754830       12.5668826251
  C         2.9548506042        2.8745932825       11.2561241994
  C         2.9263147346        2.2147938681       13.6405173067
  C         3.6894067794        3.0633638633        9.9905975603
  H         2.4840654282        3.8141570780       11.6369042959
  H         2.1266058007        2.2335224584       10.9947374195
  H         1.8650458216        2.0346000931       13.3660221188
  H         2.8285985742        3.1715886458       14.2289680557
  H         3.1886641624        1.4018904794       14.1753933457
  C         4.2942984016        1.7348194869        9.6127112266
  H         3.0896724508        3.5126189983        9.2196559415
  H         4.4191180045        3.8015121617       10.2673978811
  C         5.0395349946        1.7446789286        8.2469180954
  H         3.5163441153        0.9342096285        9.7356646246
  H         5.0919758064        1.5920106924       10.3608109341
  C         6.3248109380        2.6402384693        8.3136039766
  H         4.2969521273        2.1362493091        7.5504327374
  H         5.3155659414        0.7584379588        8.0122576429
  C         7.5671103304        1.9312956005        8.9405771829
  H         6.4397424454        2.9654442108        7.2526526242
  H         6.1711074885        3.5556544190        8.8959335825
  C         8.8157480058        2.8886835380        9.1203136538
  H         7.8186313520        1.0166858886        8.3383757768
  H         7.4330090106        1.5479355776        9.9755021797
  C         8.4888880773        4.1596998982        9.9198737932
  C         9.1889070415        3.6058801175        7.8917445584
  C         9.9967198863        2.1724742019        9.8917785269
  C         8.5611206218        5.2910555129        9.1278711422
  C         7.9304836488        4.4842337045       11.1591232143
  C         9.2087773451        4.9668032181        7.9002854271
  C         9.7541595668        3.1161255236        6.7061130688
  H         9.6377982625        1.8287867703       10.8474971318
  H        10.2909341307        1.2692203910        9.3035190224
  C        11.3437461275        3.0127179012       10.0784918381
  S         8.1852136054        6.7756473188        9.8773107473
  C         7.6963565908        5.8435571707       11.2553417950
  H         7.7190530800        3.6477496271       11.8453905220
  C         9.6510196519        5.6963364428        6.8109365712
  H         9.8410070550        2.0678892264        6.5217664425
  C        10.1867142009        3.8081555385        5.6391281466
  H        11.1547466384        4.0325455166       10.4318534857
  H        11.7162542533        3.1839404899        9.0307650324
  C        12.2774611444        2.3062387583       10.9475778703
  C         7.2691352842        6.5725891426       12.5370158324
  C        10.1296609009        5.1685182730        5.5908852914
  H         9.5400630069        6.7722484749        6.8696985376
  C        10.7114072799        3.4870185781        4.4186000284
  H        13.1111883233        3.0457237481       10.9879020554
  H        12.6340381268        1.3393521012       10.5356112367
  C        11.8579008854        2.1358330349       12.4429949639
  C         7.5112333925        7.9483923470       12.8405723804
  C         6.9254430641        5.7417611462       13.6899042453
  C        10.5727829617        5.8867984500        4.3670062592
  C        10.8984593769        4.5807735255        3.6085393468
  S        11.0354861055        2.0178094189        3.6106276958
  H        11.0184045157        2.7773154951       12.5308747251
  H        11.5048180972        1.1551793057       12.5902459293
  C        12.9003047480        2.4309887508       13.4876067500
  N         8.1077351987        8.9284269217       11.9728516924
  C         7.3018479920        8.5256108668       14.1177765847
  C         6.7655265517        6.2734647641       14.9839336165
  H         6.7219594539        4.7002199802       13.4746315998
  C        11.8138185115        6.6687149829        4.5342796355
  C         9.3892409741        6.7022475171        3.8317463833
  C        11.1464695937        4.2292685687        2.2011584684
  C        11.2563042625        2.8461655499        2.0693251481
  H        13.3275451720        3.4410289529       13.2689525782
  H        13.7079293863        1.6559711013       13.4029242331
  C        12.4136769922        2.4271647607       14.9351324343
  S         7.9491274015       10.3483804355       12.6379283547
  N         7.4680977095        9.9153398290       14.1235935820
  C         6.9315340411        7.7171807586       15.2027827066
  H         6.5853627563        5.6585092647       15.7810459428
  H        11.6480438656        7.3543625484        5.3058042587
  H        12.0766305317        7.2331984204        3.6516516211
  C        13.1201028605        5.9056443040        5.0107046723
  H         9.0013675689        7.3604522954        4.5015175958
  H         9.8208365426        7.2688171327        2.9767674060
  C         8.2188501944        6.0221814376        3.1010627189
  H        11.1012450755        4.9943599185        1.4906724325
  C        11.5198564490        2.1757117005        0.8231326194
  H        12.1821650848        3.4356022497       15.3079516698
  H        11.4391274054        1.8222165615       14.9539643288
  C        13.4828652990        1.7832885124       15.8640955918
  C         6.6740543695        8.3387280241       16.4396474570
  H        12.8471499698        5.3350853045        5.9326018171
  H        13.3197503626        5.2213103655        4.2026705263
  C        14.3381467986        6.9053996898        5.2922629948
  H         8.0084651121        4.9912858533        3.3994700075
  H         8.6867397856        5.9096520174        2.0648519864
  C         7.0487440368        6.9653574553        2.9189040537
  C        11.7009170702        0.7872269760        0.6502020856
  C        11.8956984824        2.9842453670       -0.3261844130
  H        14.4264959169        2.4007916585       15.7914374698
  H        13.7684329054        0.7507719511       15.7016506816
  C        12.9524057889        1.9415201936       17.3064576208
  H         7.0243154372        9.3620427671       16.3801397937
  C         6.3491605429        7.9231235385       17.7308348512
  H        14.1363126065        7.5128110896        6.1335553107
  H        14.4144729038        7.4765869818        4.4169917818
  C        15.6897130946        6.0879947533        5.4253363499
  H         6.7670731231        7.3175867748        3.9559884334
  H         7.3477112198        7.9088051929        2.3917135298
  C         5.9859894373        6.2432414085        2.0836450872
  N        11.5450687197       -0.1841651301        1.5835475899
  C        11.9708718834        0.2380488035       -0.5866800512
  C        12.1590521678        2.4286094070       -1.6053943417
  H        11.8897844039        4.0759786384       -0.2819337535
  H        13.3052916886        0.9818444481       17.8978864165
  H        11.8608806986        1.9573659593       17.3457965577
  H        13.3039792541        2.7884577556       17.8394285892
  S         6.1029475605        6.2681190655       18.1994770244
  C         6.3215250855        8.9709683344       18.7440642059
  H        15.6263871361        5.0800423463        5.0145704210
  H        16.3824268804        6.4551761817        4.7134286626
  C        16.1198293960        6.0269587375        6.9323584273
  H         5.6518997905        5.4096577882        2.6770886670
  H         6.4182608541        5.9115034101        1.1382693724
  C         4.9125426004        7.1559085145        1.5530949603
  S        11.6379024535       -1.6098556423        0.9237035230
  N        12.0430088024       -1.1054856742       -0.5944603270
  C        12.1383198649        0.9303475180       -1.7781119016
  H        12.4216046086        3.0675027896       -2.4431020792
  C         5.8675741841        7.0615271173       19.8154234302
  N         6.1005673627        8.4030842099       19.9500766446
  O         6.4649312737       10.1742488663       18.5985069975
  H        16.2739917401        6.9887166433        7.4200584820
  H        15.4622154673        5.3824997097        7.5505710012
  C        17.4886281905        5.5042504741        7.1335834489
  H         5.2266163784        7.6334189458        0.6497743544
  H         4.0694247789        6.5909570502        1.2582563383
  C         4.5198400923        8.3607368477        2.3760677141
  C        12.5072073006        0.2064265313       -2.9856601570
  S         5.5618099602        6.1624838085       21.2511891733
  C         6.1158737116        9.3172674492       21.1347294810
  H        17.5190707995        5.1519854222        8.1579999285
  H        17.7108896736        4.5933674618        6.6520360555
  C        18.5338446374        6.5168823007        6.7258718714
  H         5.2685196503        9.0177339689        2.8711990399
  H         4.1108011506        7.9413366058        3.2109226016
  C         3.3807791491        9.1661217435        1.7157920902
  H        12.1613082180       -0.8194251378       -2.9655600226
  C        12.9416700743        0.4619786486       -4.2261830427
  H         5.4985716326        8.9454779046       21.9656156884
  H         5.6101683275       10.3876389313       20.8524090391
  C         7.5681420738        9.4724014537       21.6013065605
  H        18.3127577866        7.5247375533        7.0003857300
  H        18.5052623046        6.6094323574        5.6521029077
  C        19.9378497402        6.3881428621        7.2003663105
  H         2.5406668174        8.5594474538        1.2610622047
  H         2.8171066040        9.5271315584        2.5434358412
  C         3.9082316603       10.3044418137        0.9177745625
  S        13.5481239042        2.0350286567       -4.6881664996
  C        13.1394824503       -0.6420792875       -5.2309030811
  H         7.7430279388       10.0694898896       22.4344151237
  H         8.1015996455        9.9603611112       20.7914078940
  H         8.0289788463        8.5112871843       21.8031939295
  H        20.6160021857        7.0447307243        6.6722518153
  H        20.0833455256        6.6346301519        8.2637319090
  H        20.0611128269        5.2970954117        7.0754008415
  H         3.3388861539       11.0868169012        1.3986703234
  H         5.0102820310       10.4717935518        0.9945167691
  H         3.7101680542       10.1525084019       -0.1842593683
  C        13.8964230216        1.1877080018       -6.2287229914
  N        13.7921469032       -0.1425717543       -6.3213144079
  O        12.7615286015       -1.7408397673       -5.0668101027
  S        14.3609926828        2.0203059141       -7.8160925342
  C        14.1275760839       -0.8977290132       -7.4947822604
  H        14.5223231678       -1.8859921466       -7.1500588836
  H        14.9492581401       -0.4409223007       -8.0262827077
  C        12.9378772530       -1.0636888131       -8.3877414883
  H        12.4478587113       -2.0136324487       -8.2425350823
  H        13.2235260473       -0.8950800218       -9.4489919591
  H        12.2410101885       -0.3320816177       -8.1653461309
  H        -2.0811495680       14.9546474465       15.0664601189
  C        -2.7163975075       14.4226567036       15.7792283501
  H        -3.5200469986       15.1067915880       16.0346762975
  C        -1.8677906608       14.2214241492       17.0370684320
  C        -3.0908726400       13.0550719098       15.1744119456
  C        -2.6076229558       14.1499544951       18.4064702542
  H        -1.2364784365       13.4025387544       16.9403184576
  H        -1.1702038103       15.0811467630       17.0154127040
  H        -3.2789707889       13.1520445807       14.1149033962
  H        -2.2702874731       12.3278676258       15.2920195820
  H        -4.0647117532       12.6853166519       15.5643307478
  C        -1.5986087639       13.9701064064       19.5858903502
  H        -3.3805443136       13.3456598079       18.4635525586
  H        -3.1866794423       15.1002998879       18.5371932643
  C        -2.3791686976       13.9726377816       20.9315633061
  H        -1.0413209313       13.0437027704       19.4429554647
  H        -0.7785619625       14.7070271941       19.5544348970
  C        -1.7071049983       13.3618392990       22.1799559012
  H        -3.2449215591       13.3008760021       20.8022208054
  H        -2.8516157049       14.8111337441       21.1831680760
  C        -0.3935840412       14.1108343834       22.5103248735
  H        -2.5310156026       13.2109406912       22.8737594295
  H        -1.3251692297       12.4236137221       21.7879382030
  C         0.7595599732       13.2968770835       23.2168991031
  H         0.0225263050       14.6346055657       21.5876659876
  H        -0.5766891045       14.9695102463       23.0855175656
  C         1.2141417951       12.0178705301       22.5549200118
  C         0.3563905994       12.6282149452       24.4309463663
  C         2.0597640352       14.1902068768       23.3739836054
  C         1.0717546768       10.9345540293       23.3885018078
  C         1.7722688272       11.6196943673       21.2819574182
  C         0.4084413528       11.2980336025       24.5252914928
  C        -0.1104473551       13.3019675611       25.5881479738
  H         2.0669312149       14.9364048535       22.6195634945
  H         2.0507994154       14.7196634009       24.3078238961
  C         3.4594194582       13.4686210075       23.3520477104
  S         1.5832608850        9.4067642707       22.6787590469
  C         2.0980355250       10.2778480906       21.1910408694
  H         1.9149882715       12.3168516229       20.4929404187
  C         0.0780305506       10.7094984188       25.7110936605
  H        -0.4651120803       14.3470143649       25.5765434030
  C        -0.5491290019       12.6647245630       26.6806619508
  H         3.6664940522       13.1937659542       22.3110830001
  H         3.4329423840       12.5911124766       23.9242124698
  C         4.7008066982       14.3429446141       23.7848367128
  C         2.5250160057        9.6032594825       19.9080240397
  C        -0.4918039832       11.3168602166       26.7912988956
  H         0.2856590831        9.6622948837       25.8333881681
  C        -1.1286325894       13.0196067027       27.8193639836
  H         5.4644318733       13.6879307727       24.2212333766
  H         4.2918972830       15.0528314714       24.6135744421
  C         5.2979122545       15.1679544408       22.6608950580
  C         2.3984132728        8.2259136790       19.6638289448
  C         2.9825399471       10.4701917956       18.7023508688
  C        -0.9285037775       10.6475267912       27.9863144718
  C        -1.2936380512       11.9208383145       28.6719670709
  S        -1.3891079000       14.5138805191       28.6488484553
  H         5.7550057971       16.0969180293       23.0164242712
  H         4.5411236300       15.4800588773       21.9988150152
  C         6.3898417973       14.3856262639       21.9137967103
  N         2.1240614289        7.3268339549       20.6677023440
  C         2.6107974345        7.6330633648       18.4240554410
  C         3.2278061697        9.8759992745       17.5176644316
  H         3.1790867247       11.5737156036       18.7316045469
  C         0.2228621712        9.8278990685       28.6797004451
  C        -2.1905790332        9.8169332021       27.7552092486
  C        -1.6769423836       12.3218517568       29.9643204854
  C        -1.8151477458       13.6966786717       30.0733658536
  H         7.3264252040       14.8339909019       21.9657327784
  H         6.3160094685       13.3874835778       22.2422145697
  C         5.9443859759       14.1603187523       20.5075699037
  S         2.2039567614        5.8436518742       20.0448314455
  N         2.5446687430        6.2467585406       18.4668607828
  C         3.0099504220        8.3773497238       17.3377613907
  H         3.6265332865       10.4206987204       16.7237224343
  H         0.5874916671        8.9270606147       28.1136000939
  H        -0.3077910868        9.3108910185       29.5277841049
  C         1.3944182620       10.7116070666       29.1389943020
  H        -2.0082247791        8.9882831050       27.1015710073
  H        -2.4770413154        9.3475115917       28.6966140822
  C        -3.4322061017       10.5616923113       27.1311586640
  H        -1.6802060998       11.5419730803       30.7745974189
  C        -2.1444008714       14.3793003552       31.3475082461
  H         5.6833486166       15.1222691576       20.0229790683
  H         5.0092177054       13.6949680903       20.5902862422
  C         6.9179804650       13.2485612790       19.6819429607
  C         3.2178365413        7.6865481433       16.0619353249
  H         1.6897858770       11.4451257926       28.3635643230
  H         1.1376423197       11.3151407917       29.9836816583
  C         2.4908217293        9.7668833183       29.5940468872
  H        -3.3456217383       11.0967490383       26.1563475057
  H        -3.7512009706       11.4772355775       27.7480592231
  C        -4.7110723773        9.7273089752       27.1066967484
  C        -2.1559316660       15.7587834869       31.4389611887
  C        -2.2608567636       13.6910024252       32.6349388800
  H         7.9158544397       13.6316896946       19.8404204344
  H         6.7983084513       12.2809414522       20.0455398685
  C         6.6176318727       13.2105302585       18.2120355426
  H         2.9037976973        6.6563955474       16.0983394155
  C         3.6076369633        8.1275331366       14.8226347320
  H         2.8398273999        9.2977220739       28.6958768247
  H         2.0452149433        8.8991301100       30.1654200526
  C         3.6300714174       10.5305207021       30.3556970500
  H        -4.6580615082        8.8183973232       26.5301868712
  H        -5.0779294344        9.5582088489       28.0960539371
  C        -5.7871686757       10.6277178266       26.4832374969
  N        -1.9466032467       16.6669563711       30.4304427515
  C        -2.4655750694       16.5058597328       32.5998203692
  C        -2.4351638441       14.4008101544       33.8432054267
  H        -2.2358371144       12.5656238028       32.8528680146
  H         7.3359549631       12.7620500245       17.5224695225
  H         5.5798361299       12.6845621873       18.1231430645
  H         6.4487690049       14.1922458811       17.7526804312
  S         3.9938649021        9.6838603045       14.3602139567
  C         3.7302420385        7.0377768734       13.7979528023
  H         3.6633198577       11.6033358041       30.0260602071
  H         3.2020632550       10.4617379520       31.3978273138
  C         5.0049531069        9.7223528167       30.3357765115
  H        -5.4587373364       10.8864410088       25.4378783569
  H        -5.9157502720       11.5069716873       27.0187655128
  C        -7.1263652103        9.8979058886       26.4288070729
  S        -2.0603097923       18.2257110370       30.9782116904
  N        -2.5088431815       17.8847930207       32.4674593241
  C        -2.6471492071       15.9061787943       33.8521223986
  H        -2.3441791723       13.8407749419       34.7885048464
  C         4.0948211978        9.0607956476       12.7034095824
  N         4.0076368536        7.7253597297       12.6290145001
  O         3.4375541184        5.8440842756       13.9588113690
  H         5.5598266537        9.9733127876       31.2550170922
  H         5.5609122492       10.2686529532       29.5540411118
  C         4.8414031228        8.1728302230       30.4052606915
  H        -6.9009119928        8.8603283757       26.1768677217
  H        -7.6383213750       10.0255193054       27.3813894713
  C        -8.1192308613       10.5119872849       25.4514416014
  C        -2.7923395416       16.6573790139       35.0467095308
  S         4.5489848163       10.0056520716       11.3045350429
  C         3.9538794007        7.0279426957       11.3769906350
  H         4.1568236783        7.9622637073       31.1924905960
  H         4.3671212787        7.7909200788       29.5198545124
  C         6.1701482825        7.4599836631       30.7659022883
  H        -8.0750735271        9.9641057952       24.5609197039
  H        -7.8149135899       11.4772830751       25.2422377256
  C        -9.5719804580       10.4855214598       25.9360173148
  H        -2.6165540524       17.7700943762       35.0080344808
  C        -3.1808213353       16.2323538629       36.3398280986
  H         4.4769323249        7.5026428541       10.5354817658
  H         4.3092328654        6.0467491185       11.5512970616
  C         2.4706270819        6.8953917177       10.7511291539
  H         5.9820790033        6.4781153087       31.1695841053
  H         6.8856041311        7.9771905005       31.3595665701
  C         7.1309621237        7.1919443312       29.5471777582
  H       -10.3069489757       10.3442312715       25.1558071765
  H        -9.5918839065        9.4937987466       26.4793859099
  C       -10.0474571452       11.5885233170       26.9115394603
  S        -3.8209015074       14.7502592129       36.8150695144
  C        -3.2409514708       17.2606584064       37.4270455598
  H         2.4996199044        5.9391169996       10.2329271898
  H         1.8038068313        6.7970379193       11.6430622639
  H         2.0076930889        7.5410424075        9.9422996795
  H         7.7396075653        6.2843173253       29.7195042860
  H         7.6770633246        8.0959254955       29.2134424510
  H         6.4807907643        6.9883679128       28.7306177516
  H        -9.8058185794       11.2246593851       27.8713415339
  H       -11.0592422296       11.7165170812       26.9110108293
  H        -9.5244925961       12.4419523117       26.6056314178
  C        -4.0861781268       15.4211968423       38.3187757998
  N        -3.8680767422       16.6883303335       38.4779410107
  O        -2.8554832776       18.3912423121       37.3484960748
  S        -4.6551928501       14.6062167037       39.7644983480
  C        -3.9081366212       17.4062018616       39.6984466385
  H        -4.0312809310       18.4287117209       39.4721692650
  H        -4.7486010547       17.1881491346       40.3139084239
  C        -2.6370367239       17.1485968006       40.4981380993
  H        -2.5253413063       17.7990787988       41.2889867048
  H        -2.5938942959       16.1484387289       40.9475602761
  H        -1.7394559513       17.2267578973       39.8565894000
