352
i=
  H         4.7454250671        1.3093628587       12.6336733984
  C         4.0265909757        2.2276316901       12.5998995403
  H         4.6957645387        3.1288422368       12.7119810160
  C         3.2282326110        2.2639578135       11.2577465597
  C         3.2122008776        2.0733453958       13.8548297658
  C         4.0609521555        2.5315238522        9.9602497595
  H         2.4761575169        2.9805934893       11.2496388916
  H         2.6644787937        1.3711002761       10.9046710722
  H         2.6392458553        1.2008880085       14.0276381043
  H         2.3232398363        2.5973383752       13.8316685777
  H         3.8001056592        2.1984790825       14.7067197212
  C         4.7211219866        1.3211124663        9.3431696074
  H         3.2380698288        2.8687915876        9.2115628833
  H         4.7762546810        3.3740177335       10.1708126257
  C         5.4089117425        1.4742764963        8.0285547798
  H         3.9376036425        0.4596771369        9.2607178707
  H         5.5919961093        1.1719463531        9.9638607893
  C         6.6323778617        2.3580584862        8.3014872338
  H         4.6977833722        1.8745699995        7.2439799614
  H         5.7369762836        0.4832561160        7.6138286119
  C         7.9065380963        1.5504769833        8.6850665301
  H         6.8297431347        2.9802553833        7.4824488326
  H         6.4237817389        3.0196694191        9.2331927556
  C         9.0569126262        2.4370964935        8.9589272704
  H         8.2978352253        1.0386556648        7.8148688051
  H         7.7527821209        0.7182170362        9.3403201233
  C         8.6489063876        3.7293189512        9.7239379367
  C         9.5158448852        3.2399961738        7.7531529940
  C        10.2153226508        1.7545349628        9.7345863039
  C         8.9614770679        4.8349244329        8.9353542515
  C         8.0872640832        4.0386643879       10.9681587951
  C         9.4646064856        4.5363262026        7.7294554605
  C        10.1054374054        2.6624436172        6.5873122717
  H         9.7998993344        1.3811390564       10.6613292712
  H        10.5447823908        1.0474679535        9.0014306479
  C        11.4377000041        2.6525316175       10.0500960475
  S         8.5761031776        6.3401660265        9.7251983841
  C         8.0179751527        5.4018574592       11.1654201764
  H         7.9795438207        3.1413351218       11.6962106948
  C         9.8862624008        5.2607345166        6.6599385158
  H        10.0430110711        1.5541689536        6.5639789675
  C        10.4844360436        3.3580182249        5.5098682127
  H        11.0832758270        3.7093626830       10.3886768751
  H        12.0385109632        2.8668136165        9.1531594208
  C        12.3999563121        2.0119824444       11.1043373507
  C         7.5731385870        6.1151864193       12.3817227636
  C        10.4517554926        4.7278615550        5.4509238463
  H         9.7418508817        6.3486566697        6.7459011424
  C        10.8690294713        3.0845287963        4.1606719459
  H        13.4579411266        2.4869992082       11.1574704310
  H        12.6220441941        0.9648878487       10.7712590844
  C        11.8085903848        1.9422839811       12.5713110307
  C         7.5551494406        7.5532462710       12.5903783230
  C         7.0869756539        5.3043624850       13.6055747412
  C        10.9449343560        5.4759927636        4.2340112758
  C        11.2380831848        4.2098734863        3.4744846436
  S        10.9139229706        1.6568722559        3.2686589511
  H        11.3711992638        3.0365829945       12.5670512319
  H        10.9982025726        1.1469233910       12.6466826245
  C        12.8503392234        1.7853780151       13.6631607818
  N         7.9124806337        8.4629493639       11.6310608647
  C         7.2966488175        8.1158011957       13.8532967089
  C         6.8290560864        5.8831675176       14.8640529007
  H         6.6496061873        4.3052861719       13.3793993863
  C        12.0936865482        6.4251017196        4.4779628869
  C         9.7933705261        6.2493763230        3.5754944754
  C        11.6483843614        3.8941049905        2.1503723024
  C        11.6360734589        2.5235952171        1.9422579332
  H        13.7394173262        2.4553044149       13.4201824827
  H        13.2928643784        0.7522811352       13.7747305351
  C        12.2667879020        2.0609998921       15.0542180348
  S         7.8989600128        9.9334201018       12.4548233540
  N         7.3473886815        9.4124967700       13.8610138861
  C         6.8443863832        7.3855822667       15.0366970525
  H         6.5033262053        5.3886181474       15.6762070473
  H        11.8918465004        7.0458286557        5.3090039515
  H        12.1152301503        7.1493589615        3.6434632509
  C        13.3998045862        5.7543284526        4.7756226745
  H         9.4182584965        7.0672893787        4.2248263999
  H        10.0745373740        6.7855554104        2.7398500854
  C         8.5973040717        5.3826501109        3.0913669405
  H        11.8915945778        4.7000273898        1.4608484751
  C        11.8105719121        1.7120827856        0.6186442073
  H        11.7334594051        3.0230384571       15.1053439626
  H        11.4459802447        1.3508342508       14.9730628976
  C        13.2518205219        1.6645041814       16.1784323920
  C         6.6040247169        8.0481522263       16.3663027396
  H        13.3663278852        5.1362291457        5.5983197141
  H        13.4152638625        5.0440814893        3.9368062348
  C        14.5921147636        6.7549479084        4.9473371418
  H         8.3395298391        4.8492496600        3.8574259083
  H         8.8422062824        4.7361282985        2.2487812083
  C         7.4868215128        6.3136776334        2.7446518217
  C        11.8149527675        0.3176138253        0.5251111178
  C        12.1232250022        2.4540734727       -0.6041792799
  H        14.1155196467        2.2752935623       16.1028440570
  H        13.4813474110        0.5582727071       16.2260182932
  C        12.4889502329        1.8399544021       17.5367390546
  H         6.9290015485        9.0482731303       16.4760129702
  C         6.3599346286        7.5380270317       17.6240078371
  H        14.4510859843        7.3704712062        5.7524131064
  H        14.9646509461        7.2592682836        4.1192334825
  C        15.8979135871        6.0037861420        5.2988558049
  H         6.9457469030        6.7542711755        3.5851940497
  H         7.8235499738        7.0492265180        1.9683992977
  C         6.3097462857        5.6676898444        1.9392195096
  N        11.5858739368       -0.5826083722        1.6216259318
  C        12.0517492882       -0.4095493494       -0.6804183026
  C        12.2483568308        1.7529141974       -1.8201368518
  H        11.8755839992        3.5709652089       -0.6932500255
  H        11.4875361407        1.3749726811       17.4406302108
  H        12.2625776401        2.7871036677       17.9445734484
  H        13.0526174980        1.4201060238       18.4277814110
  S         5.9859302184        5.9011313375       18.0705833552
  C         6.4472194526        8.4865150413       18.7363111143
  H        15.5119659041        4.9181549778        5.2802047432
  H        16.6352673136        6.1457396207        4.5229613680
  C        16.5106468579        6.1270534463        6.6446386777
  H         6.0069348229        4.6521115232        2.3308820615
  H         6.6617681864        5.5448025759        0.9936918402
  C         5.1689924796        6.6916739273        1.9555954056
  S        11.7076155110       -2.0816704068        1.0443285678
  N        12.1406581659       -1.6807415876       -0.5039453036
  C        12.4346799630        0.2496158599       -1.8731760882
  H        12.4117911342        2.2400482622       -2.6875093404
  C         5.7630993517        6.5106453930       19.7160989938
  N         5.9779019559        7.8774136769       19.8671199817
  O         6.7147314015        9.6787769396       18.5735685360
  H        16.6956064536        7.2120189044        6.6400249268
  H        15.8417711417        6.0016669090        7.4804843983
  C        17.7382865381        5.2966982244        6.9367339791
  H         4.1886369163        6.2748099580        1.6719586374
  H         5.0177401750        7.2271861434        2.9205890443
  C         5.3125175101        7.8817094665        0.9266272372
  C        12.6828696071       -0.6010335168       -2.9712508658
  S         5.3988267262        5.6989885085       21.1683719960
  C         5.9170456116        8.6151711136       21.0906998666
  H        17.6818555179        4.9588725430        8.0351734639
  H        17.8797757831        4.3423615885        6.3008018869
  C        19.1418497051        6.0150795105        6.9591251696
  H         5.0363778823        7.6399309170       -0.0812356744
  H         6.4094838071        8.0519187801        0.9873446502
  C         4.3551807534        8.9670259711        1.4141304952
  H        12.5750899876       -1.6703782488       -2.8956636228
  C        13.1556548782       -0.1574564232       -4.2218390075
  H         5.2939014555        8.0463677015       21.8182262617
  H         5.5621306485        9.6507196986       20.9941524040
  C         7.3417730319        8.6794888481       21.6222665518
  H        19.5113831697        5.7902914720        7.9247519475
  H        18.8950384801        7.1397766540        6.8250589489
  C        19.9952095353        5.6341917413        5.7780477567
  H         3.3759433017        8.5907963354        1.4605501386
  H         4.6407158027        9.5109049029        2.2805958138
  C         4.1551648553       10.1128500053        0.4266708985
  S        13.7832509776        1.4132760955       -4.6950368464
  C        13.4105993765       -1.1970892160       -5.2252492568
  H         7.3621454074        9.0788151811       22.6583259375
  H         7.8958284116        9.3332163779       20.9919101203
  H         7.7745426289        7.6325103325       21.5996552504
  H        20.3453760360        6.5326295534        5.2603511334
  H        20.7903833448        5.0029673907        6.0066252803
  H        19.4244717998        5.0973493268        5.0459945939
  H         3.6546276378       10.8923485455        0.8750510233
  H         5.1244982163       10.3735829178        0.1687123204
  H         3.6166280131        9.8045932105       -0.3893833508
  C        14.2394366407        0.5396880849       -6.2239965974
  N        13.9638062795       -0.7526063365       -6.2937802448
  O        13.1185087355       -2.3699205774       -5.0468329574
  S        14.9136087558        1.4076887136       -7.5562492596
  C        14.1847292146       -1.6033784233       -7.5051345181
  H        14.3774821622       -2.6398476670       -7.1253790260
  H        15.0528715441       -1.3201611911       -8.0597296398
  C        13.0477229888       -1.8684518396       -8.3130901118
  H        12.4703921623       -0.9398717595       -8.7924165918
  H        12.3197593505       -2.6619265021       -7.9172685470
  H        13.1989289780       -2.3960302422       -9.2778455072
  H        -4.3215929295       14.2428558588       16.2834899866
  C        -3.7183721625       13.3225206015       16.2882892485
  H        -4.2343686310       12.4485269301       16.6838338474
  C        -2.5110833190       13.5442433734       17.2596316161
  C        -3.1679040994       13.1093089530       14.8370484350
  C        -3.1434411752       13.8176808473       18.7423391982
  H        -1.9430387507       12.6128571306       17.2748938708
  H        -1.7706645810       14.3593199797       17.0688664396
  H        -3.9554503066       13.0505338440       14.0450433350
  H        -2.5964413457       13.9895621859       14.5468249633
  H        -2.5641155457       12.1688263953       14.9178919833
  C        -2.0852867185       13.8448505484       19.7598035680
  H        -3.7979747026       12.9835731504       18.8867361350
  H        -3.8006092686       14.6970398052       18.6828095375
  C        -2.4298445615       13.4912699911       21.3006934795
  H        -1.0671619702       13.2917435596       19.4390456327
  H        -1.6055592318       14.8690132107       19.7859463378
  C        -1.3455985576       12.9643577187       22.0952496792
  H        -3.2999638449       12.8713094816       21.3070926216
  H        -2.7530453466       14.5371232019       21.6333621647
  C        -0.2026758486       13.9128658649       22.3655932505
  H        -1.8412923955       12.9038785229       23.0222038994
  H        -1.0404025905       11.9981499369       21.6145717910
  C         0.9924226345       13.2107939368       23.0636877706
  H         0.0226058669       14.6650328154       21.5926616110
  H        -0.5109758252       14.5984699747       23.1821651803
  C         1.3530216233       11.8196065845       22.2958637180
  C         0.5445315000       12.5070545544       24.4050856763
  C         2.2839906936       14.0507083036       23.2211812130
  C         1.1809414888       10.7312797526       23.1867964672
  C         1.8101265439       11.3616489580       21.0412901550
  C         0.6370318211       11.1819274026       24.4038292799
  C         0.1976499276       13.0371747845       25.6373742556
  H         2.6392435919       14.4067206493       22.2400233042
  H         2.1449803684       14.8648496924       23.9884268506
  C         3.5253232404       13.1481436541       23.8028051026
  S         1.5099133290        9.1876625939       22.5320905708
  C         1.9525609244       10.0156940289       21.1214185730
  H         1.9120730063       12.1841974871       20.3302784193
  C         0.2868081256       10.4920905022       25.5387847886
  H         0.2479997575       14.1535655743       25.7733120861
  C        -0.1739224621       12.3669528548       26.7698220465
  H         3.6861241843       12.3194352448       23.0947324903
  H         3.1569345086       12.6790005085       24.7716358829
  C         4.8440093070       13.9377447889       23.9888730900
  C         2.5176126529        9.3353062132       19.9335993517
  C        -0.1723958237       11.0456725010       26.7152302176
  H         0.3814362105        9.4227024807       25.5264710827
  C        -0.6057057249       12.7313840628       28.0377056630
  H         5.4890707312       13.4400075166       24.7648168753
  H         4.6420448827       15.0602476009       24.2313328953
  C         5.6436896936       13.9953762333       22.6471093070
  C         2.3602514395        7.8701864160       19.6725054736
  C         3.0808853034       10.0915269221       18.8413514385
  C        -0.7026876388       10.3057341056       27.9044564391
  C        -0.9130779169       11.5994689996       28.7663345622
  S        -0.8824886082       14.2584183414       28.7639367841
  H         6.3759584588       14.8291985674       22.6502937234
  H         5.0177584871       14.4872414781       21.8662846813
  C         6.4232710449       12.7959663427       22.1589036729
  N         1.8919785857        7.0073510528       20.6060699802
  C         2.7325969992        7.2188592330       18.5231157569
  C         3.4241605137        9.3687310960       17.5915547003
  H         3.3994430133       11.0670017859       18.9101150388
  C         0.4954429243        9.4527562588       28.5044249014
  C        -1.9861003815        9.4993779497       27.6655970756
  C        -1.5389722458       11.9546512852       30.0016496420
  C        -1.3930191917       13.3379376238       30.1586673477
  H         7.2152657570       12.4774334572       22.9267176873
  H         5.6022537369       12.0063340838       21.9393974867
  C         7.1946531421       13.0535883962       20.8608666864
  S         2.1507850416        5.4950602264       20.0297031766
  N         2.6828842329        5.9052049177       18.5113247534
  C         3.1424586285        7.9433377650       17.3423778321
  H         3.9824335707        9.8936051116       16.8717666768
  H         1.0735871404        8.8182754739       27.6619808883
  H        -0.0832389769        8.7725941153       29.2039167042
  C         1.5070854663       10.3261022728       29.3688832714
  H        -1.7426062867        8.8278491088       26.8054263497
  H        -2.1790893736        8.7598311703       28.4447001650
  C        -3.1702160113       10.3023098683       27.3081177785
  H        -1.9247743355       11.1910283286       30.7483555803
  C        -1.5943219370       14.1130926498       31.4299411830
  H         8.1004477302       12.5139704925       20.8794104952
  H         7.6326019379       14.1086197227       20.7104217580
  C         6.2747871033       12.8059518835       19.6574511396
  C         3.3535214703        7.1903899989       16.1649512768
  H         1.8890938874       11.0904349640       28.6250206162
  H         1.1035703267       11.0200819699       30.1110909546
  C         2.5255710828        9.4166210481       29.9167068944
  H        -2.9967905321       10.9887707983       26.4617827445
  H        -3.4168215447       10.8919864972       28.2053125607
  C        -4.4949046694        9.4714635399       27.1373552120
  C        -1.7236116598       15.5348628028       31.6281021937
  C        -1.7618188068       13.3199358293       32.7234759446
  H         5.7777778376       11.8160976232       19.7209359019
  H         5.4662935378       13.6136562124       19.4859196946
  C         6.9548868381       13.0618595445       18.2767000191
  H         3.3901938121        6.1572421738       16.2011779627
  C         3.6260329548        7.6712436318       14.8977618279
  H         3.0618900121        8.7392444667       29.1681807019
  H         2.1524442029        8.8152273517       30.7531475782
  C         3.6876676520       10.2518527296       30.5759658916
  H        -4.4946935856        8.4834518734       26.5843604645
  H        -5.0599793791        9.0534494031       28.0928544749
  C        -5.4704969189       10.4540235045       26.5923612171
  N        -1.4230839389       16.5181818671       30.7136459266
  C        -1.9750828945       16.1293640688       32.8187104556
  C        -2.1085905761       14.0936924393       33.9579412846
  H        -1.5824878672       12.2954015625       32.6784832190
  H         6.1544003853       13.2202779377       17.5723144314
  H         7.3263928066       14.1093531765       18.3402294514
  H         7.8811036480       12.3426300107       18.1438080106
  S         3.9713284715        9.1915970185       14.2895589837
  C         3.5373616545        6.6525163415       13.8031392383
  H         3.6090202768       11.1256292704       30.0171294163
  H         3.5856408537       10.4010029242       31.6023727787
  C         5.0129247760        9.6265799143       30.2298314098
  H        -5.0829334209       10.8441646888       25.6640649359
  H        -5.4817977861       11.2873109092       27.3669833754
  C        -6.8819020642        9.9200381350       26.4928305498
  S        -1.5997647487       17.9476804613       31.3402607006
  N        -2.1946605077       17.4900005563       32.7560334313
  C        -2.2203012494       15.4966169070       34.0604189748
  H        -2.0179786276       13.7076679140       34.8306368552
  C         4.1660581096        8.5711403238       12.6754159403
  N         3.8654306984        7.2521839836       12.5989027135
  O         3.1920284515        5.4846573369       13.9370689256
  H         5.8737259190       10.1469343544       30.4794133413
  H         4.9764620909        9.6555421679       29.1283730975
  C         5.2832106341        8.1346829146       30.9165728297
  H        -6.8395104561        8.8597133347       26.1951631167
  H        -7.3260746138        9.8232638741       27.4400284681
  C        -7.6214450771       10.7451841318       25.4571595593
  C        -2.5334069644       16.2489414644       35.2473326162
  S         4.5499325911        9.6311458136       11.3209273029
  C         3.7814140596        6.5337380246       11.3394337445
  H         5.8945252530        8.3010234313       31.8741899932
  H         4.1932272037        7.7890194445       31.2069330636
  C         6.0082168257        7.1829728506       30.0592356557
  H        -7.0182935428       11.1083868767       24.6264819739
  H        -8.0931543196       11.6957848539       25.8517659776
  C        -8.6806394439        9.8931574236       24.8255991277
  H        -2.1570801566       17.2328660238       35.2616994711
  C        -3.0693763549       15.9395980253       36.4550678928
  H         4.5377760292        7.0716270538       10.6784981342
  H         3.9538268988        5.4582723175       11.6521444699
  C         2.3916465635        6.6696709947       10.7407079074
  H         7.1102865455        7.1791634061       30.0370416318
  H         5.7873696597        7.0847529971       28.9527500677
  C         5.6867587178        5.6650648436       30.6473370777
  H        -9.2304860091       10.3088943058       23.8346245311
  H        -8.3751321606        8.8454212135       24.6531033928
  C        -9.9663108719        9.8507956569       25.7802332567
  S        -3.5182950898       14.3904206168       36.9861219293
  C        -3.1938839830       16.9931252220       37.4347725896
  H         1.6459328346        6.8751353026       11.4265924692
  H         2.2207144397        7.3302975026        9.9557350558
  H         2.0665751377        5.7212495693       10.3540842036
  H         4.9721367685        5.1347919117       30.0851166618
  H         5.2985579959        5.7571533064       31.6027564615
  H         6.5177695204        5.0001812671       30.6387954977
  H        -9.7002603435        9.2817452118       26.5879550795
  H       -10.9543098833        9.5934449870       25.3472482463
  H       -10.1596057362       10.7794702338       26.2485471237
  C        -3.7202179902       15.0068706364       38.5215629546
  N        -3.6335802249       16.3566278534       38.6264104427
  O        -2.8767823089       18.1839360197       37.4192119684
  S        -4.0770901039       14.1364449551       39.9515160924
  C        -3.6246066386       17.1209934904       39.8766987188
  H        -3.9611803879       18.1788251879       39.7909368724
  H        -4.3872547575       16.7704829943       40.6200351886
  C        -2.2942686369       17.2223514107       40.6143496598
  H        -1.9732669503       16.3216977193       41.1545579778
  H        -1.4019063686       17.6868843305       40.0423885930
  H        -2.4389896988       17.8423892532       41.3918334808
