352
i=
  H         3.5879985460        1.9485699857       12.0196918976
  C         3.9451659875        2.9857165607       12.1755865385
  H         5.0428975067        2.7909895634       12.1149381902
  C         3.5633266750        3.8550307076       11.0291455507
  C         3.3125040697        3.3400925631       13.5569541767
  C         4.6699320897        4.0562243308        9.9806277572
  H         3.4372339124        4.7886611627       11.4713481737
  H         2.6839206614        3.4614688973       10.5416885198
  H         4.0254066827        3.0548522514       14.3588116552
  H         2.4794673254        2.6796546917       13.6409171530
  H         2.8636777023        4.3655905883       13.6228596454
  C         5.2140041122        2.6578221740        9.5386691554
  H         4.2080130670        4.5367138330        9.0779681730
  H         5.3560946403        4.6680015920       10.4977041626
  C         5.8487006335        2.5958516937        8.1171229399
  H         4.3990852744        1.9393503877        9.6589728885
  H         5.9855920287        2.4220969332       10.2628148857
  C         7.2355727091        3.2862890284        8.0613922260
  H         5.1739053475        3.0353458400        7.4676014899
  H         5.8993283472        1.6636489864        7.6051656713
  C         8.4538115696        2.6524306537        8.6320225378
  H         7.4948370085        3.4793551813        6.9874542637
  H         7.0031090641        4.3105376766        8.4376147029
  C         9.7259438585        3.5185517710        8.8209089835
  H         8.6644276483        1.7341243515        8.0727829069
  H         8.0941151544        2.4667132988        9.6733319207
  C         9.3060990442        4.8359511470        9.4673840564
  C        10.2248337161        4.3092631182        7.6386864638
  C        10.7711224150        2.7802050447        9.6186402297
  C         9.6125433749        5.9764895914        8.7698425769
  C         8.7408562257        5.2090184215       10.7138619447
  C        10.0666521659        5.6048370143        7.5299408933
  C        10.7224468150        3.6883144734        6.5179319427
  H        10.2406072854        2.4581613614       10.5544407427
  H        11.0908911574        1.8767558610        9.0867285145
  C        12.0171906870        3.6361398532        9.9933780932
  S         9.1867257013        7.4719701918        9.5219471671
  C         8.6051341138        6.5460037995       10.8885759975
  H         8.4131681014        4.4615838383       11.4282514879
  C        10.4377323520        6.2608777449        6.4207218276
  H        10.7369891778        2.5937577425        6.5123435780
  C        11.0716531779        4.3181983342        5.3811064460
  H        11.6355875606        4.4671511048       10.6652562656
  H        12.3806015522        4.1029896456        9.0987412048
  C        12.9838967947        2.8429899027       10.8967842366
  C         8.1718994708        7.1701625800       12.2099545427
  C        11.0130037485        5.6869374443        5.2867531078
  H        10.3288365015        7.2988511557        6.3936815634
  C        11.4341650287        3.9072783057        4.1527787391
  H        14.0272864480        3.0574994788       10.5411481103
  H        12.8092168072        1.7521855393       10.7771198917
  C        12.7612487630        3.3261821467       12.3799176153
  C         8.2763320137        8.5734951405       12.5619433299
  C         7.6622223565        6.3112816034       13.3552722341
  C        11.4152870213        6.3132266141        3.9804485571
  C        11.5682869709        4.9387617626        3.2657244376
  S        11.4363034463        2.3909031522        3.3301038031
  H        12.7076698653        4.3847273761       12.3282428245
  H        11.7591928580        3.0761918418       12.7582954502
  C        13.7873786402        2.8040965418       13.3094810593
  N         8.6181641865        9.5808631478       11.6964017267
  C         7.9715758651        9.0689244604       13.8024252163
  C         7.3514342614        6.8526136514       14.5530366892
  H         7.5265013927        5.2671902152       13.3289491503
  C        12.7400125664        7.1185981687        4.0688161692
  C        10.3345516443        7.1519080881        3.3192908200
  C        11.8692247351        4.5589151675        1.9788629502
  C        11.7676498903        3.1692532314        1.8295867395
  H        14.0136130877        3.5332908909       14.0514012283
  H        14.7256372033        2.4036583998       12.8785781494
  C        13.3463094141        1.6437229817       14.2022332457
  S         8.5668405460       11.0384217090       12.4682864064
  N         8.1042846946       10.4751823682       13.8860586105
  C         7.5376437649        8.2523119103       14.8757084567
  H         7.0777994998        6.1882546005       15.3708712724
  H        12.6419346341        7.9822126742        4.7177558459
  H        12.9710986048        7.6037336749        3.1163455617
  C        13.8407075857        6.2017733936        4.5062624377
  H         9.9740530611        7.9116318996        3.9896955268
  H        10.7718532233        7.7058766810        2.4877267124
  C         9.0822398767        6.3698270258        2.8050709799
  H        12.2149006021        5.1965763135        1.2060766797
  C        12.1271372588        2.2087657011        0.6140207158
  H        12.7061309296        0.9448661921       13.5886279023
  H        14.2480245493        1.1092358363       14.5094411953
  C        12.6196489715        2.2702127241       15.4305601052
  C         7.2364965595        8.8919148211       16.1379605413
  H        13.5046964233        5.4202022398        5.1245201023
  H        14.3558628475        5.7089222485        3.7021882552
  C        14.8569806554        6.9492959936        5.3895475511
  H         8.7796094352        5.8019470947        3.7113094009
  H         9.3646822589        5.6600714004        2.0344455302
  C         8.0929052712        7.4278318648        2.2513180439
  C        12.1267115687        0.7936018429        0.4786092792
  C        12.4141290330        2.9370580475       -0.6442458839
  H        11.8412282629        1.6294130111       15.7948350850
  H        12.0079016535        3.1556654501       15.0787979693
  C        13.4919405988        2.8534216207       16.5048509442
  H         7.6437351605        9.8515325087       16.2452093490
  C         6.7607987368        8.4303587424       17.3318927254
  H        14.3562546426        7.4618727576        6.1368067405
  H        15.3847585794        7.6524024777        4.6731072984
  C        15.9028744049        5.9936326971        6.0065706183
  H         7.9479644199        8.2004888120        3.0113918045
  H         8.4271804306        7.9811796325        1.3077119759
  C         6.6823347475        6.9683393835        1.9703623341
  N        11.7472937299       -0.0715550501        1.4941962817
  C        12.3787208076        0.1396127387       -0.6823772372
  C        12.7002749486        2.2281564009       -1.8467481414
  H        12.3066173779        3.9474004545       -0.6878132872
  H        14.4353019417        2.5152864344       16.4299053500
  H        13.1509472707        2.6534351199       17.5196623759
  H        13.7628575337        3.8589529856       16.2340158383
  S         6.1821560769        6.8500537092       17.6362138196
  C         6.7090492613        9.4258740392       18.4327140786
  H        15.6177528749        5.3293064591        6.8296452226
  H        16.2664111614        5.4233327420        5.1552797771
  C        17.0362578235        6.8900762278        6.4451431666
  H         6.1382539085        6.4962805285        2.8059306502
  H         6.7250167749        6.1927892004        1.2134831809
  C         5.7749425488        8.0446330471        1.2666839484
  S        11.6679246182       -1.6027172668        0.9579119501
  N        12.2174274426       -1.2474055005       -0.5305956160
  C        12.7575950677        0.7874018589       -1.8796511882
  H        12.8931021530        2.7956243560       -2.7147020568
  C         5.9298669254        7.5154237603       19.2950042615
  N         6.2090756454        8.8204480067       19.5126210952
  O         6.9966171930       10.6247594670       18.3147784307
  H        17.3719326358        7.3732355064        5.5117763983
  H        16.7005078565        7.6115247459        7.1898592442
  C        18.1177037846        5.8596792531        6.8640951415
  H         6.3198194963        8.7084858846        0.6183029036
  H         5.0866842369        7.4787367440        0.6023370153
  C         4.9634975131        8.7588928391        2.3527087209
  C        12.9743699135       -0.0130154865       -2.9973194603
  S         5.7416750324        6.4025380263       20.7332416885
  C         6.1498992175        9.4766192091       20.8502595174
  H        17.9223637501        5.5378549464        7.9077336706
  H        18.0180269876        5.0285288450        6.2429151609
  C        19.5960686940        6.4384476798        6.8338421135
  H         5.6191933182        9.4256002209        2.9319103906
  H         4.6021346576        7.9464784068        3.0000013070
  C         3.7168870880        9.4226975623        1.7471851826
  H        12.6832410825       -1.0438797613       -2.9644846276
  C        13.4278461562        0.3005278334       -4.2381871906
  H         5.5982938747        8.9301461885       21.6252371385
  H         5.6996649916       10.4295805900       20.6904101896
  C         7.5736559082        9.6703150020       21.3629325515
  H        20.1658107456        5.9704170787        7.6451227541
  H        19.5327006692        7.5551260438        6.9050558185
  C        20.2763294687        6.1133848633        5.5063054060
  H         3.0998706040        8.7156692653        1.2458402998
  H         3.0821993933        9.8001595103        2.5191218932
  C         4.0892723260       10.5548415933        0.7519933632
  S        14.0216314027        1.7965567462       -4.7781978553
  C        13.5281609860       -0.7831098167       -5.3044902723
  H         8.2527758744        9.3200335508       20.6238341294
  H         7.8296691390        9.2612336596       22.3193976916
  H         7.8036440733       10.7553661915       21.4490704891
  H        20.4498750901        5.0774556496        5.4123662749
  H        19.6526701580        6.5697562366        4.7877402218
  H        21.2837877498        6.5468077893        5.3172262594
  H         4.0699436130       10.1801000447       -0.2866598156
  H         3.3449828381       11.3475760921        0.7791926329
  H         5.0776476012       10.9758198419        0.9215187925
  C        14.4522934068        1.0426920667       -6.3040878947
  N        14.1338235138       -0.2652032819       -6.3932763347
  O        13.2427372727       -1.9497443290       -5.1519267725
  S        15.3462795933        1.8924895502       -7.5637442723
  C        14.2587959832       -1.0840269957       -7.6455109650
  H        14.4427818160       -2.1473158631       -7.3843120766
  H        15.0273907686       -0.7693880769       -8.3173816584
  C        12.8928069468       -1.1472494779       -8.4049008731
  H        12.7402474535       -1.9321993398       -9.1299875710
  H        13.0166198905       -0.2436885619       -9.0660594709
  H        12.0346716709       -1.0946595986       -7.7124808563
  H        -3.1476525149       15.3283856689       16.1071676406
  C        -3.3396682566       14.3143785158       16.3615941235
  H        -4.2831052465       14.3447681881       16.9904342032
  C        -2.2580675788       14.0119333887       17.4144455319
  C        -3.4971490600       13.4051326341       15.1155509742
  C        -2.8310238318       14.1366935912       18.7953412934
  H        -1.8570918966       13.0270904888       17.2901348434
  H        -1.3991598251       14.7056300241       17.2484696380
  H        -2.8262298229       12.5483976037       15.1448491393
  H        -4.5976225415       13.1788520996       14.9355821730
  H        -3.1308227240       13.9295875735       14.1713720133
  C        -1.7334137011       13.7033509722       19.7581689289
  H        -3.6759032180       13.4253471359       18.9257086731
  H        -3.1388536055       15.1870915443       19.0898645906
  C        -2.1667290930       13.9142764553       21.2010790650
  H        -1.5557919828       12.6858747599       19.5835034650
  H        -0.7796996357       14.1799012857       19.5779161088
  C        -1.1358206647       13.2716022654       22.1070676303
  H        -3.0799420501       13.3621318419       21.2588806640
  H        -2.4459611530       14.9253202115       21.4220354285
  C         0.1747176363       14.1372715050       22.3296894439
  H        -1.6329502365       13.0648592373       23.1019093200
  H        -0.9105454421       12.2707164868       21.7091668404
  C         1.3643961070       13.3640498118       22.8439000525
  H         0.4752613498       14.6899406242       21.3733057850
  H        -0.0593409030       15.0136033073       22.9714157501
  C         1.7227213906       12.1792263247       22.0749680011
  C         0.8942271942       12.5494896353       24.0194278688
  C         2.4855542183       14.4160356178       23.2038626312
  C         1.4908250010       11.0018432433       22.7942850238
  C         2.3498768202       11.9921025951       20.8596648500
  C         0.9731821635       11.2284518453       24.0333662406
  C         0.4085049532       13.0556457473       25.2270463369
  H         2.6555354136       15.1355308503       22.4753580800
  H         2.1967304718       14.9632624902       24.1499725070
  C         3.7301429166       13.6471210824       23.5636185600
  S         1.9526036718        9.6188954850       21.9767158251
  C         2.4476792321       10.6657950078       20.6193657317
  H         2.5626560270       12.9035428070       20.3049485746
  C         0.5590529341       10.4920407121       25.0792657004
  H         0.3666866623       14.1513754069       25.2455507157
  C         0.1026093961       12.3962575354       26.3593342080
  H         4.0191983037       13.0987223146       22.6769983173
  H         3.5536356929       12.9773365664       24.3879823231
  C         4.9283386007       14.5485710812       23.8611469144
  C         2.8765269650       10.1170962643       19.2573108742
  C         0.1557004891       11.0331884262       26.3709265343
  H         0.5842899054        9.4354340154       25.0082842215
  C        -0.4035525993       12.7584999896       27.6050321730
  H         5.5490029467       14.0459105056       24.5727837564
  H         4.5871513560       15.4453121930       24.4639285572
  C         5.6384114899       15.0563050610       22.5709568143
  C         2.7261124173        8.7801623984       18.8372012887
  C         3.4995230414       10.9573528041       18.2333308605
  C        -0.2349357007       10.3422212683       27.6154714344
  C        -0.4917605848       11.6529376499       28.4124624457
  S        -0.6572080194       14.3195178549       28.3481547494
  H         6.4702233998       15.6068715584       22.9053138291
  H         4.9378538734       15.5837699626       22.0086423622
  C         6.2570595204       13.8805827368       21.7525019756
  N         2.3513584531        7.8102937424       19.7394616546
  C         2.9791896137        8.2335480214       17.5924424593
  C         3.8435243985       10.4714626007       16.9650080142
  H         3.6827003792       12.0334581486       18.4430692483
  C         0.8723222405        9.5820779618       28.3616900001
  C        -1.5737200374        9.5307684999       27.3758159068
  C        -0.8479838449       12.0962815100       29.6924382435
  C        -1.0124605094       13.4331944283       29.7958787925
  H         7.3412487072       13.9878115019       21.8078036318
  H         6.1849019844       13.0275418436       22.2838942018
  C         5.8324677727       13.7012638252       20.3031093413
  S         2.4153837610        6.3512438135       19.0171761538
  N         2.7392557263        6.8383675631       17.5285432166
  C         3.5180261324        9.0504435998       16.6052105558
  H         4.4207144273       11.1541763609       16.3268230470
  H         0.9888737053        8.7306135167       27.7439779586
  H         0.3765007959        9.2665043368       29.2626713386
  C         2.1882432511       10.2374204153       28.5413546438
  H        -1.4120547546        8.9406126617       26.5709071012
  H        -1.8630713028        8.7877254501       28.1796274990
  C        -2.7812197386       10.4883417881       27.0821622862
  H        -1.0016231937       11.3478817186       30.4547488904
  C        -1.3587681380       14.1858776156       31.0533605606
  H         4.9539202741       14.3382767922       20.1820231299
  H         5.5535807462       12.6231308172       20.2059843662
  C         6.7798036083       14.0284613120       19.2207268917
  C         3.7907101542        8.4824008127       15.3100662822
  H         2.5638857779       10.7325738183       27.6082593506
  H         2.0636566230       11.0757347294       29.2038011337
  C         3.3014915742        9.2863196882       29.1172170198
  H        -2.5895132882       11.1488781453       26.2293739821
  H        -2.9548255078       10.9427300994       28.0270815927
  C        -4.0140527646        9.6759805554       26.8040810781
  C        -1.3913828468       15.5971539167       31.1731610554
  C        -1.4896035494       13.4210062680       32.3081755075
  H         7.3077905027       14.9562929928       19.4435850913
  H         7.5625527336       13.2160731830       19.2430300754
  C         6.0607455986       13.9514817126       17.8694681890
  H         3.5884587973        7.4020001466       15.2448397311
  C         4.1671716985        8.9635349978       14.0935792869
  H         3.8000480699        8.8265798951       28.2570300169
  H         2.9010710436        8.5466911822       29.7325563663
  C         4.2557510397       10.1605281497       29.9709386108
  H        -3.8203111398        8.9547387910       26.0115805689
  H        -4.3418318495        9.1569165344       27.7108736522
  C        -5.1167159322       10.6822830631       26.3028774207
  N        -1.1746909446       16.5508710197       30.1703137891
  C        -1.7174551016       16.2108828784       32.4166822040
  C        -1.7941254724       14.0408220205       33.5043006991
  H        -1.2089670725       12.4131590937       32.4029345313
  H         4.9870287518       14.0067541660       18.0324893724
  H         6.3507051904       14.8775379607       17.4095433107
  H         6.2645978018       13.1077168010       17.2604098355
  S         4.3352733454       10.6373178014       13.6421710848
  C         4.3634515108        7.9573948572       12.9450213648
  H         4.2459872026       11.2093436889       29.8562039391
  H         4.1296960432        9.9834370436       31.0010113375
  C         5.6722858138        9.8211734313       29.7366567923
  H        -4.6718337075       11.4211290493       25.6428761330
  H        -5.4152219796       11.1653010332       27.2226305438
  C        -6.3736640529       10.0062195727       25.7810494072
  S        -0.9978780971       17.9859352726       30.9363805775
  N        -1.5729921768       17.6014948651       32.4070752640
  C        -1.9618024988       15.5077582232       33.5959595055
  H        -1.8510554011       13.4417686211       34.3656251415
  C         4.7343161262        9.9898435693       12.0405107939
  N         4.7930912891        8.6360008438       11.8882855854
  O         4.2623443704        6.7182114247       13.0483617394
  H         6.1796501391       10.6511878121       30.1071051406
  H         5.9112478062        9.7623992295       28.7022507703
  C         6.1711056876        8.6279825699       30.5866714637
  H        -5.9769037628        9.1205022504       25.3278208859
  H        -7.0927847661        9.8586954684       26.6151888733
  C        -7.1848691676       10.8432372567       24.8800052663
  C        -2.3320459923       16.2927056059       34.7502056089
  S         5.3113957643       11.0579852451       10.7896673995
  C         4.9434252514        7.9881374081       10.5872688674
  H         7.2352716884        8.7772319943       30.7747432722
  H         5.7156097072        8.4843028743       31.5837263414
  C         5.9608998520        7.1811787113       30.0357075475
  H        -6.8615595337       10.8184892758       23.8815093372
  H        -6.9509267054       11.8331609446       25.1417863861
  C        -8.6399169790       10.6227396469       24.9987556126
  H        -2.4224890921       17.3093136048       34.5527218898
  C        -2.6637176347       15.9183327547       36.0056126410
  H         5.5591933253        8.5769977517        9.8648279709
  H         5.4499086486        7.0188821048       10.8030578051
  C         3.5857996435        7.6448170286        9.9066780222
  H         6.0352101357        7.2438098991       28.9542715833
  H         4.9637897325        6.8152091505       30.2690747068
  C         7.0136240757        6.1911940910       30.5026022704
  H        -9.0721134319       11.1618309217       24.1732027986
  H        -8.9347597671        9.5909971040       24.9860630584
  C        -9.1665468948       11.2526750053       26.3135016033
  S        -3.0145064532       14.3612232559       36.5558753293
  C        -2.9554293936       17.0688457550       36.9260065792
  H         2.7839135230        7.5216376788       10.6403645773
  H         3.1867241331        8.1856081448        9.0077545282
  H         3.6708751937        6.6434195543        9.5806408970
  H         6.9852928434        6.1954072043       31.5840551776
  H         8.0450520856        6.4708160629       30.2412615859
  H         6.9841963111        5.2720178914       30.0078190814
  H        -9.2626009064       10.5245800579       27.0901119338
  H       -10.1481718044       11.7055034348       26.2647200348
  H        -8.5592051887       12.0321053175       26.7426535377
  C        -3.3882478644       15.2088255790       38.1103952305
  N        -3.4045424001       16.5674087934       38.0731180640
  O        -2.6616578838       18.2288258060       36.7135397262
  S        -4.0123781612       14.3870599236       39.5400763244
  C        -3.7753595072       17.3758784201       39.2123346837
  H        -4.1240435713       18.3117008439       38.8199498535
  H        -4.6940200484       16.9874916643       39.6376374609
  C        -2.7440256104       17.4671229656       40.3304239483
  H        -1.9107487472       16.7891777550       40.0090877370
  H        -2.3555848390       18.5162807946       40.4053408081
  H        -3.2647666745       17.1069582669       41.2609943133
