352
i=
  H         2.9217538803        1.0110354303       13.5271875333
  C         3.5528251104        1.8917831727       13.2696766292
  H         4.5343213619        1.5412511955       13.0798105227
  C         3.0505648103        2.5282257170       12.0054107145
  C         3.6143379477        2.8589123080       14.4500941840
  C         4.2355226377        2.7640311194       11.0670307363
  H         2.6946174379        3.5829385653       12.2241284763
  H         2.2959134501        1.9444314420       11.4952993169
  H         3.4074295966        2.3098222236       15.3082095342
  H         2.8944460481        3.6842947552       14.3711455573
  H         4.5623444810        3.2816916676       14.5768112913
  C         4.5687416815        1.5586934567       10.1617102435
  H         3.8868620556        3.5285837085       10.3419739588
  H         5.0968287708        3.3054009916       11.4587898928
  C         5.2133148838        1.8413379002        8.7684904998
  H         3.5624972585        1.0606006621       10.0726260075
  H         5.2331801719        1.0328973806       10.8023677808
  C         6.5919538410        2.6591159888        8.7630509013
  H         4.5194112645        2.3309335549        8.0545555123
  H         5.4089554846        0.9629474839        8.1361809804
  C         7.7429851545        1.9473835698        9.4823499294
  H         6.8888510804        2.8333131613        7.7752461331
  H         6.3039980220        3.6091418889        9.2562226267
  C         9.0052121314        2.9116317423        9.4822535751
  H         8.0991125366        1.0598992855        9.0229935054
  H         7.5742732726        1.6450409691       10.5038520153
  C         8.6614242515        4.2277606991       10.1677834381
  C         9.3956913171        3.5821207353        8.2241680193
  C        10.1382321189        2.1254859640       10.2413476618
  C         8.9214408443        5.3534591082        9.3555693555
  C         8.0504938704        4.5999740937       11.3626210883
  C         9.3647695020        4.9463820417        8.1211673171
  C         9.9218166623        2.8938207514        7.0726368112
  H         9.7225565837        1.9857829990       11.1984943154
  H        10.4247609080        1.1243083774        9.8290657219
  C        11.4684037204        2.9161575055       10.4028268833
  S         8.6141879760        6.8405244026       10.1459556781
  C         8.0772584565        5.9120449065       11.5137220301
  H         7.8017679904        3.8471658403       12.0781206121
  C         9.7849575940        5.5988470060        6.9559074142
  H        10.0355143907        1.8240525605        7.0922487101
  C        10.2664802828        3.5573265624        5.9532173286
  H        11.2605434827        3.9573079241       10.7632717831
  H        11.7393469682        3.0353948394        9.3258441973
  C        12.6161307094        2.2921540122       11.2457096785
  C         7.6381346504        6.6823655047       12.7707164458
  C        10.2608573633        4.9335217451        5.8301907528
  H         9.7197964715        6.6609618046        6.9330904697
  C        10.6118723553        3.1760745325        4.6955782782
  H        13.5324469288        2.6474402273       10.8304279446
  H        12.6169539441        1.1763412618       11.0307031704
  C        12.5469288556        2.5343995697       12.7982706275
  C         7.7096333152        8.0655345122       13.0772517939
  C         7.0894048956        5.8203138212       13.9226301321
  C        10.6675358341        5.6352087109        4.5923262926
  C        10.8206550375        4.2516462223        3.8512996174
  S        10.8933443600        1.6242320962        4.0273597203
  H        13.6001252073        2.7666000270       13.1715466573
  H        11.8523221663        3.3464088570       12.9831730382
  C        12.0859364453        1.2359716014       13.5728604813
  N         8.2835563775        9.0338700300       12.2250896492
  C         7.4302564412        8.6101161194       14.3398896292
  C         6.7101098687        6.3759969399       15.1441689979
  H         6.6635019999        4.8065876393       13.6367278277
  C        11.9913211162        6.3351313133        4.7425954739
  C         9.6859305653        6.4829199564        3.8121767445
  C        11.3151196868        3.8227055804        2.6153106809
  C        11.3549362336        2.4491716371        2.5493874680
  H        12.6453608890        0.3119634960       13.4669237911
  H        11.1209190351        0.8350879478       13.1931061355
  C        12.0832218031        1.4830682954       15.1229835122
  S         8.1689569800       10.4637905448       12.9775095175
  N         7.5753681530        9.9506107538       14.3992509662
  C         6.9439975696        7.8207676235       15.4373501973
  H         6.2813867565        5.7273265616       15.8551557512
  H        11.9890875993        7.2284661405        5.3240118551
  H        12.3008643304        6.8050844453        3.8237059523
  C        13.2077225144        5.5028490020        5.2023578734
  H         9.5568498104        7.4310520864        4.2882160344
  H         9.9933816854        6.6848577181        2.8284517111
  C         8.3387940699        5.7690228197        3.6567798660
  H        11.6981971376        4.4559261076        1.8291942168
  C        11.7267462897        1.6300485450        1.3233090632
  H        11.0605851468        1.8918645938       15.3805825656
  H        12.0438938062        0.5377207868       15.6142132991
  C        13.1716780899        2.3182781094       15.7576478282
  C         6.7214647126        8.5376949191       16.6377674925
  H        13.0043902984        5.0591378276        6.1625756447
  H        13.4459625757        4.6784231711        4.5193427590
  C        14.4491261329        6.4174223116        5.2979449127
  H         8.0410573684        5.3292911487        4.6250796970
  H         8.5302537810        4.8802853810        3.0339538759
  C         7.1420838740        6.5813531325        3.1326055446
  C        11.7238820514        0.2041741443        1.1038384696
  C        11.9490932078        2.3636875360        0.1017131636
  H        12.9014383410        3.3828319768       15.5208058463
  H        14.1137223508        2.0278762683       15.3790128319
  C        13.1631105792        2.3647884269       17.3392554316
  H         7.1474854008        9.4774740954       16.6939024332
  C         6.4462531185        8.1384503065       17.9090091425
  H        14.2457840762        7.1963069710        6.0225404772
  H        14.7197834065        6.7002479823        4.2675386778
  C        15.6128110004        5.6263833233        5.7658440394
  H         6.5604622788        7.0565703522        3.8747018302
  H         7.5070631339        7.3376041782        2.4419012096
  C         6.1597748603        5.7323771549        2.1949047510
  N        11.5471386082       -0.7190052643        2.1422411466
  C        11.8591595815       -0.4322728788       -0.1043202926
  C        12.2293425760        1.7228181742       -1.1166834225
  H        11.9662604348        3.4800816514        0.1224729329
  H        13.3814140995        3.3791062326       17.7592090147
  H        13.9085844986        1.6600285332       17.6726231442
  H        12.2342535569        2.0115547224       17.8974153890
  S         5.8242144568        6.5979754250       18.4122953311
  C         6.5920011387        9.0735582811       19.0372380508
  H        15.3219022836        4.6092649304        6.1038725435
  H        16.2479046563        5.4198721522        4.8764781265
  C        16.4592179272        6.2545323330        6.8739106176
  H         5.4194898828        5.0917910044        2.6393085867
  H         6.7042389737        5.0406848771        1.5819450781
  C         5.1809055992        6.6612089201        1.3974868427
  S        11.5947840550       -2.2037134553        1.5686198441
  N        11.7466988673       -1.8145270258        0.0044281607
  C        12.1020836088        0.2599765512       -1.3268179220
  H        12.4756153795        2.3270257932       -2.0315574440
  C         5.9108371480        7.1897571710       20.0928039744
  N         6.2693220756        8.5027908701       20.2333878372
  O         6.8537551840       10.2274144729       18.7848571490
  H        16.6286881941        7.2868962029        6.5119090806
  H        15.8819855481        6.3966728489        7.7844730288
  C        17.7403528336        5.4639929100        7.0737504371
  H         5.8154852963        7.1727494655        0.7011650337
  H         4.4004071614        6.1447963281        0.8190863648
  C         4.3653489939        7.7854731375        2.1550011813
  C        12.1416721870       -0.4343844097       -2.5856920544
  S         5.1492136485        6.5485196755       21.4905923286
  C         6.4032128889        9.3327108785       21.4235240365
  H        18.2139463233        5.7523478849        8.0339811692
  H        17.4982928230        4.3934090687        7.0737147872
  C        18.7347830912        5.5623495520        5.9361260640
  H         4.5455565714        7.7504792942        3.2354324771
  H         3.2979407436        7.5349938852        1.9859138030
  C         4.6634424727        9.0599365882        1.6128927816
  H        11.9158638956       -1.5470088906       -2.4618300244
  C        12.7398068406       -0.1339884373       -3.8018186278
  H         5.9705956385        8.9260590303       22.3050325917
  H         5.8515612261       10.3151177578       21.2804835496
  C         7.8461176815        9.7779684660       21.6912948999
  H        18.7928118515        6.5676217890        5.8026163536
  H        18.6151589248        5.0636870259        5.0345966122
  C        20.0730206117        5.1310600260        6.4962151244
  H         4.5821841241        9.7819517964        2.4188573998
  H         5.7475153525        9.0560955343        1.4744465810
  C         3.8090955323        9.4096092112        0.3799132595
  S        13.3394395520        1.4937913482       -4.2930724654
  C        12.8298221399       -1.1586687327       -4.8914785320
  H         8.0097871737        9.6522454213       22.7637387572
  H         7.7862835931       10.8119399980       21.4144499016
  H         8.6142642907        9.2495179944       21.1553060765
  H        20.4740140851        4.2862308090        5.9603513923
  H        20.8580332597        5.9653792696        6.3517803246
  H        20.0093059855        4.8981720892        7.5637146566
  H         3.1357838716       10.2176589567        0.7532413976
  H         4.4603387952        9.9017230129       -0.3663359328
  H         3.2309573012        8.6587521043       -0.1348696097
  C        13.5656234635        0.7825800481       -5.8529850311
  N        13.4743282143       -0.5501177764       -5.8794520997
  O        12.5379504730       -2.3710643912       -4.7839092966
  S        14.4243669354        1.6149658434       -7.0931054237
  C        13.8981160404       -1.3164490433       -7.0468672524
  H        14.0060069196       -2.3258923334       -6.6694879718
  H        14.8833577189       -1.1518103178       -7.5566770680
  C        12.6906168246       -1.2122687574       -7.9162455901
  H        11.8131776488       -1.3709976795       -7.3856890901
  H        12.6590412504       -2.0985674539       -8.5908650848
  H        12.6460781035       -0.2603952696       -8.4308075422
  H        -2.5919971018       15.0884994650       16.7493221650
  C        -2.7335689279       14.0673916573       16.9198752453
  H        -3.6688600441       13.8957820108       17.4459010780
  C        -1.5844291614       13.5591919468       17.7571364676
  C        -2.9089525357       13.2835749994       15.5584588105
  C        -1.6554603544       14.1090143801       19.1538594974
  H        -1.6231841895       12.4575649682       17.7616806208
  H        -0.5997256923       13.8617874241       17.4317139580
  H        -1.9663658598       12.7637143048       15.1897663689
  H        -3.7381298118       12.5587966819       15.6162426872
  H        -3.1892047258       13.8992392216       14.6623401177
  C        -2.5528644603       13.2289215460       20.0362752493
  H        -1.9197160315       15.1097071104       19.1014606113
  H        -0.6940688049       14.0549776714       19.7031117130
  C        -2.7221358290       13.4835944229       21.5780630565
  H        -3.5283699740       13.3122545483       19.6727310913
  H        -2.2120347364       12.1645793314       19.9378496440
  C        -1.6239434494       12.7542661338       22.4059291325
  H        -3.7057112684       13.1039005688       21.9215338280
  H        -2.8337837445       14.5614272469       21.8963109202
  C        -0.3414005917       13.6165703161       22.5480173977
  H        -1.9544058784       12.3620201972       23.3687010438
  H        -1.3896226385       11.8611855065       21.8793228036
  C         0.8954706093       13.0068888753       23.2130067572
  H        -0.1779597079       14.1468353798       21.6190220872
  H        -0.5155574895       14.4772011841       23.1874465953
  C         1.3532275858       11.6687779620       22.5849128010
  C         0.4400255255       12.1796372813       24.4334119187
  C         2.1325878506       13.8611018151       23.5045619109
  C         1.1297554796       10.5835818954       23.3730067579
  C         1.8733068424       11.2865390821       21.3134254439
  C         0.6195509918       10.8848257228       24.5645507855
  C        -0.0339765220       12.7242624119       25.5699092973
  H         2.3297577288       14.4045837489       22.5970493760
  H         1.8547557262       14.4579082871       24.3377238716
  C         3.3949338890       13.1208526821       24.0659237868
  S         1.4461483759        9.0877774130       22.5540092014
  C         2.0263895638        9.9041180494       21.2733759455
  H         1.9199935031       11.9488626141       20.4375952123
  C         0.2729527103       10.1902429064       25.6958908620
  H        -0.2858757428       13.7650801303       25.5437010430
  C        -0.2706633493       12.0306418941       26.6857710463
  H         3.8362307674       12.3563743552       23.3928277978
  H         3.0786661787       12.6000981909       24.9032370050
  C         4.5378334129       14.1135704994       24.4447526261
  C         2.4766295877        9.1335113920       20.0367636129
  C        -0.1693825166       10.7321306972       26.8671312275
  H         0.4529494374        9.1231516045       25.6464216075
  C        -0.7011170761       12.4267082415       27.9723739731
  H         5.3719775403       13.6154421534       24.9210681536
  H         4.0985665394       14.7811622804       25.2295522217
  C         5.0998087863       14.9267200196       23.2580591973
  C         2.3511590137        7.7543091753       19.7836711773
  C         3.1678743321        9.9900240430       19.0108630255
  C        -0.6832856603       10.0603786416       28.1353346384
  C        -0.9616242409       11.3901656611       28.8022098449
  S        -0.9946680312       13.9739366513       28.6587709992
  H         5.7745478274       15.7693384417       23.6103729925
  H         4.2365275430       15.4323777898       22.7827289264
  C         5.9670755302       14.1413612893       22.3040779151
  N         1.8779068768        6.7984929443       20.6536698471
  C         2.6077445238        7.2503404249       18.4722103435
  C         3.4245064445        9.4710654094       17.7311165684
  H         3.6280641318       10.9240425926       19.1900595464
  C         0.3837073933        9.1976907727       28.8806006693
  C        -2.0656579617        9.2426996353       27.9671711586
  C        -1.4334231415       11.8308616110       30.0570312903
  C        -1.4236607655       13.1738039492       30.1727109761
  H         6.8207816941       14.8158929155       22.1432113273
  H         6.3034459730       13.2121389334       22.7934476660
  C         5.1285588894       13.8198688820       21.1137219120
  S         1.8929523196        5.3664253049       19.8905604982
  N         2.3334794557        5.9030147899       18.3821287614
  C         3.1760941264        8.0288496621       17.4126370687
  H         3.9932143144       10.0690414285       17.0153162179
  H         0.6918083078        8.3731956197       28.2496351358
  H         0.0229613102        8.6422436396       29.7298547466
  C         1.6315781491        9.9996550722       29.3554359601
  H        -1.7865438260        8.5256305811       27.1831584790
  H        -2.3495599175        8.7337394435       28.8335554281
  C        -3.2657722664       10.1504773810       27.6304695422
  H        -1.5797710805       11.1578852418       30.9074370650
  C        -1.5913172303       14.0052428819       31.4762421587
  H         4.8166273258       14.8011316352       20.6487825945
  H         4.2006681048       13.2367525979       21.2575374194
  C         5.9919107425       13.0436108647       20.1251836224
  C         3.4016963047        7.4636262933       16.1529490117
  H         2.0614838593       10.3530241395       28.4294970580
  H         1.3891624459       10.9125978854       29.9631133452
  C         2.6352850990        9.1259200958       30.1502717218
  H        -2.8898203144       10.7230629409       26.8060335831
  H        -3.5325516862       10.6970343239       28.5141347917
  C        -4.4849082199        9.2794250161       27.3090300738
  C        -1.8131467824       15.4498225759       31.5575816368
  C        -1.8298287206       13.2461042044       32.7462492677
  H         6.6344549291       12.2568891748       20.5147821979
  H         5.3922491497       12.5047053511       19.3822015024
  C         6.8569358029       14.0201846949       19.3748897980
  H         3.2684720189        6.4351361767       16.1529869403
  C         3.6249231959        7.9962864376       14.8887531241
  H         2.6665381165        8.1691942407       29.6513849631
  H         2.3158690250        8.9898879203       31.1655676796
  C         4.1200184542        9.5185876508       30.0716893475
  H        -4.1602294335        8.3962127722       26.7587386842
  H        -4.8905973738        8.7494741716       28.1845456661
  C        -5.4999605808       10.1433990861       26.5517419132
  N        -1.5877240149       16.3446166530       30.5202558508
  C        -2.0528308412       16.0352048265       32.7602611943
  C        -2.2600783870       13.8500155427       33.8723781809
  H        -1.6382124684       12.1912339106       32.8209346953
  H         6.2570889025       14.8644540289       19.2120343268
  H         7.7245593831       14.3785382901       19.9139244478
  H         7.3195800749       13.6806973791       18.4732414251
  S         4.0742658814        9.5889964786       14.4618186852
  C         3.6345138142        7.0231309984       13.7127625939
  H         4.5718718348        9.3133347492       29.0689935958
  H         4.2914536191       10.6372049541       30.3129172404
  C         5.0051221220        8.7000983997       31.1174312433
  H        -5.0612606947       10.4314825557       25.6485776711
  H        -5.9513182109       10.9072226514       27.1578089936
  C        -6.7891947838        9.3319226612       26.1496193031
  S        -1.7007829555       17.8197554053       31.0647782372
  N        -2.1680355636       17.4256706453       32.5830956662
  C        -2.4239348533       15.2890677475       33.9629902683
  H        -2.3230433554       13.2556668718       34.7620175328
  C         4.2584643156        8.9714097752       12.8002750672
  N         4.2291681492        7.6379400046       12.6528928721
  O         3.3591201834        5.8919688282       13.8791199039
  H         5.0392603999        9.2524118258       32.0234687315
  H         5.9937704985        8.7001466660       30.6692793710
  C         4.7203815584        7.1965402773       31.1647539436
  H        -6.4385332174        8.4767865945       25.4976574619
  H        -7.3166988489        8.9148423181       27.1050706889
  C        -7.6089894419       10.1993285339       25.1660227295
  C        -2.6424673241       16.0549668175       35.2003820136
  S         4.8814199838        9.9944534981       11.4984536996
  C         4.4669669388        6.8938808760       11.3855909862
  H         3.8490196061        7.0091198367       31.7454193580
  H         4.4700472544        6.8213624085       30.1500108225
  C         5.8750294173        6.3008376110       31.5541729251
  H        -7.0055192102       10.3756575227       24.3385850603
  H        -7.7258242837       11.2107559598       25.6578476920
  C        -9.0237724786        9.7348885103       24.8210397410
  H        -2.2787099439       17.0552595628       35.1418922816
  C        -3.1996264916       15.6875956198       36.4047926160
  H         5.2605435708        7.2506499477       10.7218175147
  H         4.6985028360        5.8462004307       11.4751718249
  C         3.1418793286        6.8611440396       10.6028081664
  H         5.5911776160        5.3139184946       31.8243575460
  H         6.3046360308        6.7587782532       32.4715562713
  C         6.9284360949        6.2950930524       30.4092151881
  H        -9.3964219048       10.4646285973       24.1066273209
  H        -9.0851667116        8.7202727739       24.3612251947
  C        -9.9596880655        9.8082727952       26.0113025424
  S        -3.9206877806       14.1098816758       36.7945166364
  C        -3.3214943386       16.6505593166       37.4600398647
  H         2.4095192058        7.6763006967       10.7945484772
  H         3.4006508364        6.9985150408        9.5691212777
  H         2.5508880713        5.9922040260       10.7617156914
  H         7.1953694915        5.2899628226       30.0720615225
  H         7.8457051011        6.6751557439       30.7301387802
  H         6.5062823370        6.8418100612       29.5503090531
  H       -10.8446329804        9.2315941760       25.8277679953
  H       -10.4219024612       10.7249753677       26.3770083450
  H        -9.5075949749        9.4990647506       26.8841059283
  C        -4.3050564324       14.8724616473       38.3011795827
  N        -4.0385851114       16.2275671383       38.4283397584
  O        -2.8743072926       17.7714174754       37.3863272132
  S        -4.9698390449       14.0790541863       39.7620910954
  C        -4.1259078171       16.9304903182       39.6335946954
  H        -4.2814490682       18.0127724356       39.4524089109
  H        -5.0332865051       16.7216933009       40.0993609590
  C        -2.9742684528       16.6134856397       40.5481867664
  H        -1.9374676339       16.6833899409       40.1569517236
  H        -3.0236971876       17.3101143551       41.3969793316
  H        -3.0551145458       15.5788794986       40.8663786326
