352
i=
  H         2.4287583810        1.4460173589       12.9858550303
  C         3.2811972324        2.0321707745       12.7691588989
  H         4.1397516095        1.3511106819       12.6138257813
  C         3.1062551706        2.8610221018       11.4520996329
  C         3.6352126145        2.7102912033       14.0577763301
  C         4.2996906604        3.0426318832       10.5878632971
  H         2.7510132483        3.8667788316       11.7072173808
  H         2.1938093708        2.3418184922       10.9790606625
  H         3.7002077843        1.9133046415       14.7883502829
  H         2.8948420638        3.4981987791       14.1726195139
  H         4.6188874851        3.2117159721       14.0498770648
  C         4.6463463205        1.7139926353        9.9558972841
  H         4.1067805128        3.6209935183        9.7129684025
  H         5.0543152414        3.5883378706       11.1593976496
  C         5.2722173119        1.8129964867        8.5478363303
  H         3.7753025052        1.0168030355        9.8944031516
  H         5.3001494504        1.1397807943       10.6103590359
  C         6.6019303713        2.6551524910        8.5300938904
  H         4.5578715718        2.3113532689        7.8246598937
  H         5.5709518590        0.8026891814        8.1492569863
  C         7.8718697203        1.9596701451        9.0018504172
  H         6.6602509358        2.9010165317        7.4966950056
  H         6.3966911770        3.6226391635        9.0467813098
  C         9.1206109305        2.8543898430        9.2312417136
  H         8.1500347789        1.3278299075        8.1723367260
  H         7.6420613430        1.2718854796        9.8609498223
  C         8.7000780989        4.2023022983        9.7929484179
  C         9.5668749086        3.5659790789        7.9746166651
  C        10.2521017887        2.1743922533       10.0607166345
  C         9.0478447989        5.2656805870        9.0558693562
  C         8.0215559230        4.5343202177       10.9659799030
  C         9.7120593976        4.8976467649        7.8850800873
  C        10.0143877981        2.9101237208        6.8032085060
  H         9.8260799620        1.9060232262       11.0249396549
  H        10.6820040561        1.2331398275        9.7046225126
  C        11.4062128147        2.9827718235       10.5296455963
  S         8.6956596864        6.7971283273        9.8090680771
  C         8.0195469744        5.8909805300       11.1550241158
  H         7.7336068766        3.7781809239       11.6744876313
  C        10.1813661295        5.5433282551        6.8026273195
  H        10.0193974877        1.8460119238        6.9516863181
  C        10.5499484674        3.5330624707        5.6926581529
  H        10.8809429136        3.8264414161       11.0124846612
  H        11.9982643318        3.3494120881        9.6956189958
  C        12.3674012469        2.3393708691       11.5648906128
  C         7.5539485451        6.5328568038       12.4406897734
  C        10.6096329146        4.9355483947        5.6402294363
  H        10.0821631018        6.6306234462        6.7879865179
  C        10.9751916041        3.1245277816        4.4263609884
  H        13.2753528368        2.9096698029       11.5089604106
  H        12.5694144640        1.3637135470       11.1430141539
  C        11.8339404301        2.1230392641       12.9977820124
  C         7.7077490462        7.9084377202       12.7569293887
  C         6.9148564696        5.7840336380       13.5289116694
  C        10.9523716202        5.5531373226        4.3483894443
  C        11.2428787288        4.2242131423        3.5966762022
  S        11.0968445351        1.5984109801        3.5294099434
  H        11.5815311082        3.0248358692       13.4336453932
  H        11.0023688944        1.4546328862       12.8895477617
  C        12.8669940181        1.5809277310       13.9577617242
  N         8.2273168538        8.9246609483       11.9791652628
  C         7.3573012715        8.4271255131       14.0303507748
  C         6.6211369378        6.2589839859       14.7837386714
  H         6.5446341746        4.8685180865       13.2009151987
  C        12.1975434516        6.4818766219        4.4986190417
  C         9.7896109277        6.4354385075        3.7526040779
  C        11.5400086436        3.8584081742        2.3006518700
  C        11.5031535701        2.4629136258        2.1150990327
  H        13.5454340544        2.4005571923       14.0326658342
  H        13.4529557362        0.7577271737       13.4962972380
  C        12.2495821760        1.1246241273       15.2924460554
  S         8.0692088740       10.3724092464       12.7265183058
  N         7.6240145548        9.8053571923       14.1406569118
  C         6.8826099943        7.6704416262       15.1452724021
  H         6.1539646971        5.5856440123       15.4213509546
  H        12.0625243383        7.2797282019        5.2840893744
  H        12.3740264322        7.1418872835        3.6559297253
  C        13.4296190210        5.6885040671        4.9707586012
  H         9.4016195968        7.0773223960        4.5631103613
  H        10.1945689521        7.1363749294        3.0297443882
  C         8.6462231773        5.7116510564        3.0165040647
  H        11.6644631177        4.6087266396        1.5298892607
  C        11.8663415166        1.7673051002        0.8789368286
  H        11.3407554135        0.5068411602       15.1352855566
  H        13.0382274259        0.5573654230       15.7662979754
  C        11.8552177579        2.2193146303       16.2470767969
  C         6.7552498893        8.2414359219       16.4186588434
  H        13.2293873363        5.0665586379        5.9073722186
  H        13.5577786667        4.9545673072        4.1987628583
  C        14.6918688283        6.5044103568        5.0367977689
  H         8.2358716516        4.9657749423        3.7162006097
  H         9.0699658868        5.0733220494        2.2277381560
  C         7.5851856764        6.6552652016        2.4474512855
  C        11.8401082403        0.3902271313        0.5682734428
  C        12.1839638171        2.6307592005       -0.3210459454
  H        10.9504401204        2.0665574984       16.8199724435
  H        11.4757121522        2.9614558951       15.5982941251
  C        12.9760687647        2.6861331124       17.1614437530
  H         7.0046937457        9.2879612425       16.4207956128
  C         6.4678326154        7.7255384533       17.6561502660
  H        14.7083702785        7.2124898540        5.8180674132
  H        14.8337140369        7.2086851118        4.1895695331
  C        15.8349919175        5.5333251636        5.1809452404
  H         7.4278683482        7.3651459953        3.2687482785
  H         7.9319711169        7.3330646394        1.6024456349
  C         6.2559752559        5.9985744491        2.1886880454
  N        11.6944727900       -0.5542490409        1.5448974003
  C        12.2791037100       -0.1398582692       -0.6369923974
  C        12.4985476576        2.1322723421       -1.6172099516
  H        12.2806515479        3.6633639206       -0.1614683818
  H        13.7355254381        3.1246606646       16.6445691461
  H        13.4010079922        1.8879773607       17.7961809243
  H        12.5483519304        3.4722909516       17.8429208849
  S         6.1566354928        6.0097982495       17.9762170873
  C         6.4220244041        8.7421487681       18.7492127870
  H        15.5875445652        4.7486956948        5.9475496430
  H        15.8427525217        4.9719843285        4.2884231111
  C        17.2691612254        6.0965625981        5.4821909908
  H         5.9038576711        5.9135247272        3.2163883146
  H         6.4331194653        4.9938443878        1.8151278524
  C         5.3722539279        6.8341335406        1.2500905744
  S        11.9406204816       -2.0497641998        0.8772231094
  N        12.3702684645       -1.5609380084       -0.6254236770
  C        12.5564695692        0.6199149502       -1.8002402145
  H        12.8427462049        2.8210282627       -2.3530119864
  C         5.9498083155        6.7060839380       19.6462918339
  N         6.0241276231        8.0590888181       19.8340501724
  O         6.6877486040        9.9302908585       18.5766992982
  H        17.9381639650        5.9069243403        4.6345345123
  H        17.1080553588        7.1446746563        5.5322076394
  C        17.8518120713        5.6629322141        6.8915466801
  H         5.8869383141        6.7916937490        0.3077364220
  H         4.3711339441        6.4204128232        1.2163531395
  C         5.2409602407        8.3552991539        1.5918673007
  C        13.0124461660       -0.1050473803       -2.9720202819
  S         5.8930144873        5.6816921555       21.0428140748
  C         5.9831444384        8.7773565421       21.1244211871
  H        17.1317812680        5.7065900199        7.6776200161
  H        18.0116286426        4.6192568922        6.8629176848
  C        19.1750686456        6.1580718583        7.3895512044
  H         6.2545598751        8.8725025971        1.6413629844
  H         4.8102292286        8.3499531655        2.6509279533
  C         4.4069177025        9.0993275549        0.5303269631
  H        12.5728833414       -1.0801904277       -3.0479557958
  C        13.5660365224        0.3449596830       -4.1716127879
  H         5.3930121954        8.2384882591       21.9490508896
  H         5.5094629937        9.7122678483       21.0574492844
  C         7.4054193489        9.1300132750       21.6081806190
  H        19.5453691575        5.4332336725        8.1610043123
  H        18.9745750765        7.1367326938        7.9355986516
  C        20.2039630609        6.3835389687        6.3159840035
  H         4.4971602895        8.7048861806       -0.5107277816
  H         3.3725622189        9.0247099471        0.7651175759
  C         4.7365153199       10.6312544254        0.4943935580
  S        14.2104175578        1.9221331808       -4.4922791363
  C        13.6669968867       -0.6572804961       -5.2484015068
  H         7.9949717472        8.2050752248       21.7025732682
  H         7.3582617123        9.6008984205       22.6059833294
  H         7.9663531989        9.7762510670       20.9140715293
  H        20.4023748497        5.5002114447        5.6650771943
  H        19.9161263943        7.3028830322        5.7921478513
  H        21.1653960387        6.5907719851        6.8012364516
  H         4.2321496648       11.0819448662        1.3275627979
  H         5.8189846112       10.7220768159        0.5855311442
  H         4.3371617554       10.9020575057       -0.4619406051
  C        14.7692646341        1.2120953859       -6.0991199090
  N        14.3644711549       -0.0803079573       -6.2145564613
  O        13.3906587601       -1.7975160139       -5.1692379978
  S        15.6647998711        2.1053531546       -7.3159521620
  C        14.6339082642       -0.7630579730       -7.4868220811
  H        14.6254015596       -1.8462848422       -7.3460941774
  H        15.6230688851       -0.5077831885       -7.8155080355
  C        13.4070037917       -0.5496144452       -8.4398798441
  H        12.7932057540        0.1716281157       -8.0511859075
  H        12.7615299969       -1.4813185824       -8.4944976188
  H        13.7261138324       -0.2818220187       -9.3587089229
  H        -2.7724483906       15.5293796868       16.1587157209
  C        -2.8891554421       14.4845926871       16.4083862833
  H        -3.9527779917       14.3507175515       16.7015224043
  C        -2.0494180790       14.4342239836       17.6787744685
  C        -2.4132783613       13.7010226287       15.2458959102
  C        -2.5998835360       13.8215288518       18.9714324572
  H        -1.2075765522       13.9392608133       17.4536477412
  H        -1.7241644926       15.4152874946       17.8790517198
  H        -1.5513848602       14.1808406573       14.7770897964
  H        -2.1354414613       12.6762734874       15.4674137349
  H        -3.2197139634       13.6727248631       14.4468617435
  C        -1.5027632636       13.4314377299       19.8893154118
  H        -3.0568856696       12.8254180811       18.8494499109
  H        -3.3987234088       14.3550270996       19.4330041858
  C        -2.0144524077       13.5297070324       21.3731318021
  H        -1.1475953353       12.4878389043       19.5997545817
  H        -0.5897801336       14.0168055695       19.8728900784
  C        -1.0724903787       12.9166593917       22.4208711187
  H        -2.9580105173       12.9901697445       21.3378722023
  H        -2.1484052326       14.5824593747       21.5674100820
  C         0.0718958574       13.8534644787       22.8288261717
  H        -1.7111696075       12.7338997196       23.2736440482
  H        -0.8042792210       11.9269903380       22.1422808162
  C         1.3229296678       13.1478794561       23.4254582257
  H         0.2706231949       14.4861101824       22.0185711279
  H        -0.2975235345       14.5863030517       23.5892676870
  C         1.6641549466       11.7831739140       22.7397487828
  C         0.8600193685       12.3963564010       24.6238612774
  C         2.5373853223       14.0800946242       23.6695135517
  C         1.3198206846       10.6356430292       23.4467400127
  C         2.3389697395       11.4571668086       21.5524841818
  C         0.8882383741       11.0168460346       24.7123068721
  C         0.4130052514       13.0419846717       25.7625658475
  H         2.8108213869       14.3613484921       22.6274460775
  H         2.4197500348       15.0027896458       24.2431966018
  C         3.7291299346       13.3429095130       24.1489757369
  S         1.6380724481        9.1940299904       22.6518291644
  C         2.3006133135       10.1021946697       21.3344877398
  H         2.8286877202       12.2855862918       21.0103527537
  C         0.6395360132       10.3865864115       25.9311462158
  H         0.3676013590       14.1539212953       25.7312555531
  C         0.0957960703       12.3932993062       26.9118729235
  H         3.9636207408       12.5166434652       23.5711240914
  H         3.6374273246       12.8057270464       25.0971780922
  C         5.0773391393       14.1420268069       24.3360167357
  C         2.8023148301        9.4035879560       20.0605013327
  C         0.1717235572       11.0479721668       27.0856226726
  H         0.7222674502        9.3259897998       25.9479127458
  C        -0.3588498598       12.8680634688       28.1682710106
  H         5.6570342352       13.6713309093       25.0349122664
  H         4.8466734718       15.0478132603       24.9175835693
  C         5.6916878979       14.5021296633       23.0130897267
  C         2.6415557254        8.0476035004       19.7165548907
  C         3.1643681654       10.3266038261       18.9791795704
  C        -0.2230774980       10.4127471393       28.4000149685
  C        -0.5598082739       11.7737932018       29.0145728529
  S        -0.8088734951       14.3748463526       28.8867534206
  H         6.4723462271       15.2592608453       23.1832863679
  H         5.0282375152       15.1016732597       22.4500396717
  C         6.2632485274       13.2645000211       22.2911870253
  N         2.4798797730        7.0003078442       20.6498586728
  C         2.8442634048        7.6051041161       18.4441556214
  C         3.2063325085        9.8916123021       17.6214404766
  H         3.3352139104       11.3460490924       19.1932020179
  C         0.9720105501        9.6223661332       29.0586432139
  C        -1.4602633342        9.5926875866       28.2625004131
  C        -0.9539860343       12.1510725520       30.2561895361
  C        -1.1262100550       13.4695186872       30.3362909643
  H         7.3273614127       13.0616833926       22.6261571537
  H         5.7417744466       12.3486539335       22.4851104779
  C         6.1607731789       13.3567029735       20.7431473212
  S         2.5106662121        5.6227576129       19.8148116647
  N         2.7398314499        6.2526886365       18.3302117284
  C         3.0974438299        8.4325788726       17.3049819242
  H         3.3869089524       10.6641482195       16.8976306439
  H         1.2624778423        8.7081450890       28.4093632763
  H         0.6822823110        9.1046649006       30.0365097021
  C         2.1861231511       10.5280292736       29.4320035406
  H        -1.2620161803        8.7635851856       27.6677082880
  H        -1.6879090863        9.1357954900       29.2374421448
  C        -2.6432372088       10.2537936435       27.7418464418
  H        -1.0399354082       11.3919197574       31.0252629269
  C        -1.4841168199       14.2214301115       31.5609547068
  H         6.3316059922       14.3857317822       20.4281360345
  H         5.2119384661       12.9169540525       20.3866578581
  C         7.3705129985       12.7632690743       20.0378601967
  C         3.2124097552        7.7648101576       16.0395254264
  H         2.4387711358       10.9873686497       28.4640033532
  H         1.8937169267       11.2334023560       30.1390899907
  C         3.3605242820        9.6173837954       29.9291150675
  H        -2.3500393310       10.4450473831       26.7490095363
  H        -2.9344861119       11.2218738980       28.2069755121
  C        -3.9330641545        9.4491937141       27.4989997907
  C        -1.5190853691       15.6778876030       31.6739454794
  C        -1.6196150788       13.4623224475       32.8706884376
  H         8.2432209187       13.3472915196       20.2492352612
  H         7.5754298631       11.7124114538       20.3757878954
  C         7.2367525806       12.9559847490       18.5302919270
  H         3.1061504744        6.7002181436       15.9469812321
  C         3.5516343022        8.2679542460       14.7739863201
  H         3.5644181888        8.8632224215       29.1737301093
  H         3.0795364388        9.1908057150       30.8532748471
  C         4.6543402169       10.4581013802       30.0797330095
  H        -3.7225302381        8.8046183635       26.6911732821
  H        -4.2622003604        8.7761327559       28.2630866793
  C        -5.1005499437       10.3534810232       27.0480592479
  N        -1.3084296546       16.5736585496       30.6131151539
  C        -1.7212017996       16.3343593286       32.9021963681
  C        -1.9084710564       14.1440026130       34.0596420431
  H        -1.4883237886       12.3729164246       32.9465884808
  H         8.1312515928       12.5429437536       18.0703495757
  H         6.4433683743       12.4386781062       17.9579113163
  H         7.2005072093       14.0194326186       18.2949287251
  S         4.0586539154        9.9102042682       14.3682384514
  C         3.7208878517        7.3285048325       13.6488289274
  H         4.7495076342       11.0959595032       29.1712363841
  H         4.5189704155       11.0866177751       30.9623626268
  C         6.0917937504        9.7195579147       30.2729135939
  H        -4.5411190134       11.1414114432       26.4882935407
  H        -5.6273812914       10.8580683723       27.8581785001
  C        -6.0658204764        9.6710671065       26.0629031221
  S        -1.2444589274       18.1061028323       31.1999914454
  N        -1.6984447948       17.7413034601       32.7424850491
  C        -1.9668378664       15.6339652523       34.1012941947
  H        -1.9424991016       13.6366645928       35.0222715952
  C         4.1925766316        9.3760125058       12.7682096484
  N         4.1903360984        8.0112980724       12.5762798599
  O         3.4277001694        6.1113516471       13.7062834910
  H         6.8448559978       10.4588645225       30.6422370628
  H         6.4231887772        9.2466076163       29.3557762822
  C         5.9948162498        8.6437015154       31.3447359742
  H        -5.5247201564        9.1495784410       25.2509442026
  H        -6.7361735914        9.0163198432       26.6653376427
  C        -6.8717521759       10.7236371683       25.3625450088
  C        -2.2854356490       16.4592794113       35.2624816583
  S         4.7611072708       10.4391400242       11.4843964226
  C         4.2510420830        7.3676324710       11.2501152298
  H         6.8062101689        8.8557156206       32.0514705735
  H         4.9621647188        8.6495793963       31.7101285218
  C         6.4172884966        7.1941234151       30.9068072943
  H        -6.3010782316       11.1630173501       24.5348054081
  H        -6.9394674805       11.5641912781       26.0133482141
  C        -8.2755368603       10.3328287840       25.0336648020
  H        -1.9227547892       17.4994632557       35.1434294708
  C        -2.8101889088       16.1703264392       36.5119052255
  H         4.7297185292        7.9858544452       10.5111431073
  H         4.7828389737        6.4056809553       11.3200301288
  C         2.8538881592        7.2393196380       10.7094599530
  H         7.4113223591        7.2510219874       30.4883787668
  H         5.7851217401        6.8182059481       30.1533583665
  C         6.4460325529        6.1554324252       31.9755191378
  H        -8.6481105150       10.9683413174       24.2517818298
  H        -8.2061331546        9.3291270265       24.7528881063
  C        -9.2710093532       10.4526268463       26.2282369429
  S        -3.5390562337       14.6321862339       37.0435843346
  C        -2.9013876918       17.2141530178       37.4959260177
  H         2.8414747234        7.1932715583        9.6568561872
  H         2.2639362220        6.3783707125       11.0062792001
  H         2.2680340328        8.0177218598       11.1410410598
  H         6.3289669914        6.6501073865       32.8982614553
  H         7.3714661013        5.5487006011       31.9953990033
  H         5.6330925517        5.5047491182       31.9549507876
  H        -9.1700434356        9.7713350680       27.0458090312
  H       -10.3006505146       10.4038889989       25.8553558888
  H        -9.1804126388       11.5386440800       26.5736998825
  C        -3.7760408158       15.4226084488       38.5875440321
  N        -3.5185716349       16.7700238905       38.5759999216
  O        -2.4121923074       18.3124136642       37.3423030013
  S        -4.5228561769       14.7035552200       40.0451889824
  C        -3.6529928335       17.6821495184       39.7207770922
  H        -3.7376948843       18.7003896953       39.3347903088
  H        -4.6276286701       17.4392677789       40.1004818974
  C        -2.6022461052       17.4760404082       40.8052711049
  H        -2.0329395220       16.5074829728       40.6610537350
  H        -2.0085044407       18.4098664049       40.8839420011
  H        -3.0541753797       17.2214513306       41.7970064558
