352
i=
  H         4.3497287136        1.1234030559       12.7876533398
  C         3.8623625233        2.0020606189       12.4341499525
  H         4.5752348356        2.7833943230       12.4927676361
  C         3.4199106705        1.6458206980       10.9665104702
  C         2.7730114399        2.0768904976       13.4506602221
  C         4.4345264798        2.1176697358        9.9158419934
  H         2.5672331396        2.3409896835       10.8160398516
  H         3.0789404696        0.6252537013       10.7344594955
  H         3.1325597243        1.6342062803       14.3453885347
  H         2.0281637793        1.4426404230       13.0499461433
  H         2.2794605720        3.0196002810       13.4771590132
  C         5.1728355469        0.9302967030        9.2734199691
  H         4.0121730549        2.6696883495        9.1137846344
  H         5.1533420414        2.8110307611       10.3352859084
  C         6.0300953531        1.3433477135        8.0113958536
  H         4.3758270216        0.2769322213        9.0284228415
  H         5.9132212544        0.5498723069       10.0326774765
  C         7.0704963722        2.5247404520        8.2325117154
  H         5.4116383809        1.6049940517        7.1398000949
  H         6.6060840269        0.3948377801        7.7579685436
  C         8.2223331237        1.9860807737        8.9867423007
  H         7.2955311513        2.9648020166        7.2901027712
  H         6.6272140240        3.2614576761        8.7546697902
  C         9.3726321724        2.9948831874        9.2185685943
  H         8.5992345665        1.1055740108        8.5423780574
  H         7.9453029460        1.8098446311        9.9749952316
  C         8.9116761721        4.2573134859        9.8851459664
  C         9.7090611663        3.7080984539        8.0222700792
  C        10.6148265571        2.3252691620        9.7916938153
  C         9.1280838198        5.3737416407        9.1816209521
  C         8.2817209530        4.5177903349       11.1413991122
  C         9.5665700713        5.0759098531        7.9117705171
  C        10.0956989389        3.0696420527        6.8702191611
  H        10.4259866627        1.8389611828       10.7104838210
  H        11.0516459014        1.5499756981        9.1436731882
  C        11.7052014721        3.2941278958       10.0668751060
  S         8.6599073393        6.8013316976        9.9809640613
  C         8.1563891111        5.8872791477       11.3229769831
  H         8.2052911859        3.6824074010       11.7946049360
  C         9.9416125889        5.6376930894        6.7210719484
  H        10.2749614059        1.9928064388        6.9652649115
  C        10.3406395688        3.6501879378        5.6491224229
  H        11.3642949871        4.2441352810       10.3059263917
  H        12.1280126548        3.5093635546        9.0688311226
  C        12.8008527508        2.9156824589       11.1008990126
  C         7.6133352794        6.4884416078       12.5858080325
  C        10.3592831064        5.0436512897        5.5278377293
  H         9.9074437978        6.7374288571        6.6411756666
  C        10.7400547412        3.2656773755        4.4201458238
  H        13.7071025139        3.3871097037       10.7532493312
  H        12.8806527671        1.8443566261       10.9397053843
  C        12.4874820014        3.3106544048       12.5531146664
  C         7.5753691855        7.8837819793       12.8853148520
  C         7.2235024456        5.5642312222       13.6997579446
  C        10.7405857911        5.7210999515        4.2625862134
  C        10.9272166539        4.3573073560        3.5854384707
  S        11.0415377255        1.7841527680        3.7108075981
  H        13.1484606782        4.1300537852       12.7079869157
  H        11.4850166389        3.6317454611       12.6846573254
  C        12.9951637555        2.2860131400       13.6964818256
  N         7.8074247071        8.8666693850       11.9608074911
  C         7.3024592471        8.3892135190       14.1299567247
  C         6.8028436546        6.0817682950       14.9358330409
  H         7.2251308974        4.5405810617       13.5488163787
  C        12.0778585776        6.5466286471        4.4376149960
  C         9.5840603319        6.5667680121        3.6089152978
  C        11.2900480333        3.9138499378        2.2349531252
  C        11.4674839287        2.5610419195        2.1863722613
  H        13.9401885830        2.7390903238       14.1374309976
  H        13.3389287043        1.3391245553       13.2720178510
  C        12.0219700631        2.2058664644       14.9307783211
  S         7.5404983371       10.2893322727       12.6726727151
  N         7.2328406305        9.8349190156       14.1452291352
  C         6.9141960801        7.5724455022       15.1971682871
  H         6.3730890961        5.4003935723       15.6111275688
  H        11.8781626445        7.1224693014        5.3191847216
  H        12.1802772441        7.3384172487        3.7123730084
  C        13.3478173770        5.7869925970        4.5478207478
  H         9.2057724532        7.3498895983        4.2548280042
  H         9.9059417965        7.1017056659        2.7913335670
  C         8.3841557412        5.6361798877        3.1646176026
  H        11.4347157532        4.6650681381        1.4900891229
  C        11.7504856244        1.7689654125        0.8873875438
  H        11.7398517773        3.2310364114       15.2430688333
  H        11.0811275632        1.6793927581       14.5999568028
  C        12.7769983444        1.6461850757       16.0809571237
  C         6.5398966878        8.2798050602       16.3746178045
  H        13.0667514269        5.0496930682        5.2577858081
  H        13.5935533709        5.3656562361        3.5367018750
  C        14.5212275089        6.6423925111        4.9869573362
  H         7.8828120532        5.1098695957        3.9628939512
  H         8.8022495485        5.0027551866        2.3889267753
  C         7.2576149479        6.5137699859        2.5089816219
  C        11.7320190702        0.3561027712        0.6561162233
  C        11.8694697031        2.5612357796       -0.3343783644
  H        13.5684764778        2.3186968983       16.4711368289
  H        13.1704456954        0.6897324336       15.7702494550
  C        11.8780851753        1.4668378390       17.2908975773
  H         6.8703791463        9.2813828885       16.4359026739
  C         6.3044412690        7.7814065343       17.6437238221
  H        14.2667441629        7.1943327535        5.8936355965
  H        14.7615189627        7.4331561444        4.1966098018
  C        15.7379376516        5.8254186227        5.1641195839
  H         7.0637816855        7.3414895277        3.1683190396
  H         7.5875931889        6.9600559478        1.5737843520
  C         5.8768142812        5.9503239736        2.1137605227
  N        11.5618158131       -0.6049909253        1.6761033919
  C        12.0297947381       -0.2173183785       -0.5735598649
  C        12.1455967378        1.9799889877       -1.6422359810
  H        11.6943905174        3.6234455532       -0.3935034644
  H        11.4191409753        2.4040834095       17.6042995206
  H        12.4833265370        1.0965023790       18.1600644225
  H        11.1787567051        0.7062832327       17.0355917073
  S         6.0311154587        6.1425358260       18.0547033180
  C         6.1312942670        8.7604617342       18.7080084434
  H        15.4484987007        4.8194560257        5.4946152158
  H        16.2831400787        5.7846773714        4.2061373111
  C        16.6695767470        6.2476210047        6.2819079114
  H         5.5661222273        5.4481101558        3.0297284526
  H         6.0867234527        5.2062137607        1.4072757501
  C         4.9933700170        7.0712598866        1.6409403390
  S        11.6316584594       -2.0365325536        1.0029453894
  N        12.0484584491       -1.5582652318       -0.4878737490
  C        12.2732062058        0.4868195092       -1.7829488374
  H        12.3311459261        2.5677186764       -2.5370231726
  C         5.6911912392        6.7483813969       19.7230331121
  N         5.7483016848        8.0971003590       19.8411646863
  O         6.2023702883       10.0214590920       18.5099287952
  H        17.1949613035        7.2486110201        6.0822347052
  H        16.0570416651        6.5776499902        7.1894172121
  C        17.6494395030        5.1655382283        6.6859403726
  H         5.4468009074        7.7186439706        0.8763434760
  H         4.3076318248        6.5719330569        1.0059334225
  C         4.3078826283        7.9093536025        2.6983913547
  C        12.4435876748       -0.3438628231       -2.9919487671
  S         5.3549905878        5.7046188110       21.0380536016
  C         5.7161931919        8.8395359170       21.1187492042
  H        17.1157914642        4.4015326690        7.2664554686
  H        18.1260802355        4.6203503222        5.9285368106
  C        18.7653553259        5.8030424287        7.5521226457
  H         5.1032125856        8.5298055455        3.1026614075
  H         3.9231269530        7.2025238295        3.3873977604
  C         3.0909240802        8.6862416678        2.0861309192
  H        12.5231111729       -1.4364764618       -2.7590491977
  C        12.9037501000        0.0404132964       -4.2336885437
  H         5.0319098104        8.3565063724       21.7547951334
  H         5.1806595231        9.7533697657       20.9314879935
  C         7.1640887450        9.1057934438       21.6714951908
  H        19.0312005689        5.1109883386        8.3651671704
  H        18.4801617252        6.7157741643        8.0072942177
  C        19.9806615342        6.0132433446        6.7291670417
  H         2.3822333949        8.0862789644        1.4267535001
  H         2.5292318287        9.1884867480        2.8926080202
  C         3.5068652812        9.8947079966        1.1857711514
  S        13.2914040521        1.6345697568       -4.6925449777
  C        13.2570807364       -1.0238147847       -5.1697599479
  H         7.3785398471        8.1321367418       22.1457922428
  H         7.0519427881        9.9498228318       22.3391124375
  H         7.8559566085        9.3077797035       20.8378143126
  H        20.6215695679        6.7735375170        7.1858009642
  H        20.5459849621        5.1198113334        6.5796778396
  H        19.7670845349        6.3398830898        5.6906692251
  H         4.5983496275       10.1437449675        1.0162459173
  H         3.0839400522        9.6624135990        0.2135477539
  H         3.0503665898       10.7923406698        1.6729080778
  C        13.9135056027        0.8436464878       -6.1480313744
  N        13.8551521665       -0.4768134734       -6.2544690502
  O        13.0251391766       -2.1741534825       -4.9435685829
  S        14.5170450413        1.6663493555       -7.6252775895
  C        14.0230032867       -1.2415594508       -7.5015745220
  H        14.4546614985       -2.1936903270       -7.3266236397
  H        14.7711435584       -0.9040903743       -8.1275178543
  C        12.7463374985       -1.2366607968       -8.3762067473
  H        12.1627551470       -0.4011225696       -8.1025566981
  H        12.1176367788       -2.0870584843       -8.3707757515
  H        12.9888885458       -1.1378340334       -9.4332728273
  H        -3.7779951529       14.3252496998       15.8482180664
  C        -3.2983471488       13.3096337635       15.8296093179
  H        -4.1180161537       12.6494474028       16.1051713418
  C        -2.1514832170       13.2572556414       16.8351634706
  C        -2.8861597642       13.0490037938       14.3761981750
  C        -2.5407474841       13.6441402254       18.2368580153
  H        -1.7731335113       12.3018274081       16.8501605686
  H        -1.3976330103       13.8783508841       16.3678457584
  H        -3.6896751151       12.6707574203       13.7185392369
  H        -2.5258088102       13.8936494169       13.8197470912
  H        -1.9806737281       12.3601598562       14.2498751564
  C        -1.9630771553       12.7619551860       19.3552247801
  H        -3.5863243161       13.6409095561       18.3484867271
  H        -2.3379886472       14.6927483214       18.3858002561
  C        -2.3426284431       13.2594555914       20.7954224552
  H        -2.2954614863       11.7634092753       19.1983079964
  H        -0.8635347565       12.8993353838       19.2416302619
  C        -1.5451004360       12.6496730616       21.9546016715
  H        -3.3852841921       12.9463672202       20.9616439455
  H        -2.2954843025       14.3401585187       20.8004684625
  C        -0.2339270201       13.4575367461       22.2738789098
  H        -2.2425514922       12.5443573369       22.7893807733
  H        -1.2792032161       11.6389001226       21.6076352927
  C         0.8807533017       12.7543172563       23.1652927274
  H         0.1940797095       13.7827561151       21.3692769176
  H        -0.6662779159       14.3667142513       22.6008745800
  C         1.2133303626       11.3559936986       22.4984814662
  C         0.4213866864       12.0017853125       24.3981360259
  C         2.1060942607       13.7040173230       23.4279992858
  C         0.8984460407       10.2178052583       23.2537081494
  C         1.7715517048       10.9716506389       21.2872116986
  C         0.4312158959       10.6623456644       24.4641165637
  C        -0.0223194118       12.6084648859       25.5831490495
  H         2.1960513237       14.3903965608       22.5785743075
  H         1.8021250659       14.4292088303       24.1641628401
  C         3.3663348202       13.1000866849       24.0003356354
  S         1.4319731373        8.7531334902       22.6074752171
  C         1.9668105013        9.6329550812       21.1510792136
  H         1.8898969473       11.7486070600       20.5782620866
  C        -0.0141696815       10.0116936174       25.5509723771
  H         0.0562952628       13.7542259395       25.4958416581
  C        -0.2801383600       12.0187505427       26.7569243646
  H         3.6377106623       12.3077276682       23.3308054563
  H         3.1559217354       12.4652556085       24.9014032397
  C         4.5296399042       14.0558119645       24.2414777558
  C         2.2751578391        8.9362091455       19.8907545869
  C        -0.3501279312       10.6682480411       26.7657802994
  H         0.0350916989        8.9192695464       25.6141082346
  C        -0.6694058217       12.3406262412       28.0294981498
  H         5.2433515961       13.6220811570       24.9943788227
  H         4.1653663344       14.8677565426       24.8604715376
  C         5.3394963317       14.5270929415       23.0412954494
  C         2.3151320219        7.6089043505       19.6778514376
  C         2.7222361811        9.6951726840       18.7375710332
  C        -0.6625892194        9.9086008284       27.9772062498
  C        -0.9759318842       11.2272842543       28.7350078842
  S        -0.9218746761       13.7906417478       28.7991869348
  H         6.1305216551       15.2170451803       23.4562829730
  H         4.7582455448       15.2269923263       22.4101088307
  C         6.0423285963       13.5541477587       21.9948405349
  N         2.0094995718        6.6374637882       20.6429986943
  C         2.5795430437        7.0702929617       18.4627504386
  C         3.1149679427        9.1861577857       17.4840860515
  H         2.8604182646       10.7141283234       18.9047758391
  C         0.5244131813        9.0987399323       28.5193566569
  C        -1.9654613239        9.0598374273       27.8118709333
  C        -1.3568163721       11.5918569444       30.0938535935
  C        -1.4456086192       12.9596780504       30.2157279212
  H         6.9475860182       13.9500453996       21.5822103908
  H         6.3077163212       12.5662150988       22.5047896922
  C         5.0823177529       13.1011413534       20.9381370973
  S         2.1195297883        5.1949128236       19.9886600712
  N         2.4031686728        5.7118335222       18.4723973135
  C         2.8075661772        7.7746784342       17.2454455330
  H         3.5686774445        9.8575195725       16.7478589580
  H         0.5973645774        8.3247925537       27.7377309649
  H         0.2084087027        8.6590118524       29.4784769898
  C         1.7602717913        9.9335597234       28.9678264207
  H        -1.9570951583        8.3676196228       26.9669623437
  H        -2.2258543862        8.4946831982       28.7517719165
  C        -3.2792968648        9.8934007293       27.4817633563
  H        -1.5542417735       10.8828466233       30.8406562311
  C        -1.8179347115       13.6949016718       31.4627451954
  H         4.1438274414       13.4547466535       21.0303237408
  H         5.0752638275       11.9866918495       20.8370374401
  C         5.6042801176       13.6990371362       19.6156984259
  C         3.1033383096        7.0140619382       16.1067290336
  H         2.1182988230       10.6226236264       28.1810594756
  H         1.3962215524       10.5274775853       29.7687844525
  C         2.7436886780        8.9967145983       29.5089644167
  H        -3.0738817026       10.5487757046       26.5660699357
  H        -3.4491649373       10.6517226773       28.3011393989
  C        -4.5496078373        9.0719689684       27.2670819594
  C        -1.8841755071       15.0777374448       31.6208358950
  C        -2.0533625280       12.9116289418       32.7544395557
  H         4.9172307101       13.3824629112       18.7762370623
  H         5.5819512281       14.8237962908       19.7867995191
  C         6.9968573360       13.2068004093       19.1568527365
  H         2.8107607672        5.9864079603       16.2071967641
  C         3.4497656223        7.3703412801       14.8424174104
  H         2.9710657787        8.2433110076       28.7928738961
  H         2.2921001944        8.5452169137       30.3979913000
  C         3.9392207895        9.6146862471       30.1366410124
  H        -4.2696706381        8.4946742171       26.3780590338
  H        -4.7739492407        8.4211438135       28.1369293943
  C        -5.6489643361        9.9240692845       26.8599032232
  N        -1.6042459169       16.0107808230       30.6239610444
  C        -2.1394143892       15.7255823431       32.8374535503
  C        -2.3783072761       13.4997065118       33.9835875882
  H        -1.9627205195       11.8097600026       32.7554090127
  H         6.9198437073       12.7052229941       18.2088412922
  H         7.8097648628       13.9598980033       19.1375953495
  H         7.3180176436       12.3940779550       19.8148773023
  S         3.7790244158        8.9653452476       14.2624561830
  C         3.6340812889        6.1879321525       13.9325546480
  H         4.1876257520       10.6130072989       29.6620461041
  H         3.6947903565        9.8267189264       31.2000358039
  C         5.1047361036        8.6037830509       30.0235239750
  H        -5.2994523588       10.6757772419       26.1144377056
  H        -6.0126382572       10.4351249188       27.7222354001
  C        -6.7793419662        9.2447096435       26.1552465423
  S        -1.7188127986       17.5525816156       31.2655301314
  N        -2.1448450369       17.1293943553       32.7862374974
  C        -2.5156835460       15.0274541421       34.0323567848
  H        -2.5412226619       12.8502460003       34.8739627390
  C         4.1030190707        8.1244127542       12.6934506470
  N         3.9271215334        6.7575713898       12.7511884122
  O         3.6466461819        4.9890278496       14.2153892941
  H         6.0083999282        9.1552677941       30.1348568169
  H         5.1811067401        8.1587426678       29.0057983313
  C         5.0047612535        7.5100467646       31.1026064743
  H        -6.4558833779        8.6054779473       25.3569371975
  H        -7.2712879683        8.6974434038       26.9276758024
  C        -7.7297576591       10.3148929574       25.5966824210
  C        -2.8172796278       15.7138669470       35.2418218103
  S         4.6103126108        8.7880006893       11.1456006847
  C         3.9850303952        5.9579807177       11.4959619889
  H         5.3543340776        7.8898275909       32.0260949649
  H         3.9638977278        7.0952976111       31.1062531037
  C         5.8372453727        6.2675460785       30.7514442192
  H        -7.1999384740       10.6862341029       24.6838121505
  H        -7.7862253385       11.1327302476       26.3751410943
  C        -9.1116757282        9.7348177467       25.3786690949
  H        -2.5143021808       16.7876289654       35.1732088029
  C        -3.2014674085       15.2917417915       36.4934874612
  H         4.6817488002        6.3613516740       10.8271772359
  H         4.4049403252        4.9630930820       11.7006320105
  C         2.5376572944        5.9466646788       10.8640024815
  H         6.7566377265        6.6279280108       30.2254168385
  H         5.3863570448        5.7858709639       29.9043922185
  C         5.8744112937        5.3131548801       31.9198677803
  H        -9.5160016556       10.2402950420       24.4723006559
  H        -8.9521426057        8.6792374142       25.2794094337
  C       -10.1053818433        9.8493368639       26.5335416077
  S        -3.8184928705       13.7808701603       36.9993383763
  C        -3.1857325324       16.2755355762       37.5551232256
  H         2.3220706566        4.9478566881       10.4381879031
  H         1.7930718923        6.2605009614       11.5625589812
  H         2.5340277235        6.6843168319       10.0932825294
  H         6.5322795052        5.6818576494       32.7162679174
  H         6.2605765744        4.3202161386       31.6275150203
  H         4.8602945247        5.1471238622       32.3476031205
  H       -10.8315956675        9.0077119346       26.4209593056
  H       -10.4821623245       10.8233301050       26.5002645842
  H        -9.7560905346        9.7446542981       27.5563345418
  C        -3.8605818679       14.4144921334       38.6343032606
  N        -3.6609154850       15.7656541361       38.6852523444
  O        -2.8643494127       17.4357435090       37.3846366607
  S        -4.0216730002       13.5674192639       40.1782611710
  C        -3.8259963575       16.5351855529       39.8613843674
  H        -4.1124057207       17.5075117389       39.6588864306
  H        -4.6774500789       16.2051722649       40.5163751351
  C        -2.4828450148       16.7214734892       40.5942046141
  H        -2.1144096030       15.7361755363       40.8614051637
  H        -1.7187933860       17.2039495230       39.9388068123
  H        -2.4877236973       17.3258700462       41.4783916972
