352
i=
  H         4.5825386530        1.2460974225       12.3230720240
  C         3.8457351487        2.0235610363       12.4405102046
  H         4.5054100649        3.0138605182       12.4525588432
  C         2.8802610652        1.9224617253       11.1914639646
  C         3.2431013157        1.9573828977       13.8776481257
  C         3.7055299707        2.3024586108        9.9059713089
  H         2.0846019529        2.7643605353       11.3262021629
  H         2.4545208920        0.8548455693       11.1487582750
  H         3.4488530811        0.9994572546       14.4296801996
  H         2.1691233537        2.0097203476       13.8762758117
  H         3.7197143265        2.6470410390       14.5626149392
  C         4.5330877969        1.1196087420        9.3127624825
  H         2.8816844674        2.5366024538        9.2384461055
  H         4.5550573143        2.9700884813       10.0615947268
  C         5.0468248468        1.4160503277        7.9802744623
  H         3.8945219415        0.2028028248        9.2587744307
  H         5.3118376368        0.9700325868       10.0408923828
  C         6.2992884331        2.3643460436        7.9544209369
  H         4.2104561815        1.7736108291        7.5355875529
  H         5.2655548155        0.5052287104        7.4450384767
  C         7.5633534226        1.7314916973        8.5122739272
  H         6.4844343474        2.8251020997        7.0341572567
  H         6.1333182632        3.2842807678        8.6779580672
  C         8.6605083511        2.7690364372        8.7776915265
  H         7.8453884384        0.8758642093        7.8771493480
  H         7.3002567095        1.0930043023        9.3613861653
  C         8.3428436078        4.1264171200        9.3689961322
  C         9.1946387758        3.4755006287        7.5692059792
  C         9.9093332916        2.1437667968        9.5756076050
  C         8.6871995776        5.2317232948        8.6170226595
  C         7.8555191768        4.4723313151       10.6194948895
  C         9.2988787860        4.8073158532        7.4390639449
  C         9.7521016379        2.8203347801        6.4386397382
  H         9.5590416146        1.4690135236       10.3067537087
  H        10.3777731460        1.4861649451        8.8929351438
  C        10.9627688999        3.1802021202        9.9121395847
  S         8.1796524921        6.7301966485        9.3122716826
  C         7.7880998157        5.8762293713       10.7725980835
  H         7.4203108139        3.5658908893       11.2178831942
  C         9.8087420281        5.4177213647        6.3617311154
  H         9.8906527288        1.7508525460        6.5762346263
  C        10.2525618672        3.4465920838        5.3455059902
  H        10.5106849495        3.9705801505       10.4423316153
  H        11.4632716311        3.6493326350        9.0450581269
  C        11.9206169388        2.5105707023       10.9401156212
  C         7.2089577599        6.5953038654       12.0156627713
  C        10.3215485997        4.7902401169        5.2255630362
  H         9.7993763489        6.4977687679        6.1922967641
  C        10.8429950258        3.0092799442        4.2044411619
  H        12.6780118129        3.1785864337       11.0536133927
  H        12.3740477221        1.6114946599       10.4157692645
  C        11.3819578859        2.3467643046       12.3242967302
  C         7.4289796083        7.9533907842       12.2938909820
  C         6.8299981512        5.7006241726       13.1834020497
  C        10.9719341877        5.4870573859        3.9863436668
  C        11.2115383775        4.0716334497        3.4271898095
  S        11.0882138104        1.5669951530        3.4435236258
  H        10.8298802343        3.2070682663       12.6130541762
  H        10.6071455208        1.5221283962       12.3516730842
  C        12.5052133672        2.0056774345       13.3039362957
  N         7.6695090081        8.9307471082       11.3415768895
  C         7.3611073952        8.5177804905       13.6270611615
  C         6.7635847378        6.2828469878       14.4199484121
  H         6.6278407702        4.6854640466       13.1950329114
  C        12.2011684773        6.2980589075        4.3795482670
  C         9.9119081749        6.3763887786        3.2259970375
  C        11.5596264611        3.6540659690        2.1768580357
  C        11.5724457289        2.3071876084        1.9663218233
  H        13.3962543776        2.6435516831       13.2670583344
  H        12.7870343445        0.9961620894       12.9976948470
  C        11.9776936775        1.8326822099       14.7005403996
  S         7.8790826990       10.3813421753       12.1600697972
  N         7.6340888589        9.8568811205       13.6824328647
  C         7.0560520488        7.6861839824       14.7457197295
  H         6.4810339796        5.6181934945       15.2420521289
  H        11.9757849282        6.8018679649        5.3627630259
  H        12.2978913082        7.0961755495        3.6773667739
  C        13.4432966734        5.4037277841        4.7667098365
  H         9.5130831009        7.1885324659        3.8157570855
  H        10.4898354683        6.9626792450        2.4682497344
  C         8.7854269143        5.6152686745        2.5524851468
  H        11.6485693614        4.4037601965        1.3914152254
  C        11.7751802626        1.5573775885        0.6372439749
  H        11.2301442091        2.5506077007       15.1599709323
  H        11.3929416610        1.0132989986       14.6300037396
  C        13.0763476544        1.4788022821       15.7612957922
  C         7.0085029864        8.3569150257       16.0215197351
  H        13.4775007793        4.8443891595        5.7576361738
  H        13.5124426937        4.5433853833        4.0273112537
  C        14.6426946241        6.3723823067        4.7484795853
  H         8.3921068246        4.9453764207        3.3424946045
  H         9.2316845609        5.0030572100        1.7345588563
  C         7.7647139763        6.5181327079        1.9632234228
  C        11.7730353130        0.1054096904        0.4728550977
  C        11.9641158982        2.3040032934       -0.6089449560
  H        14.0737769212        1.7515403979       15.3899108521
  H        13.1716910330        0.4078457651       15.9024931208
  C        12.7540847313        2.1707715009       17.0620411784
  H         7.2006843278        9.4265564720       15.8820162028
  C         6.6202044892        7.9927037814       17.2671501705
  H        14.4795312288        7.1028242523        5.5375184010
  H        14.8868083492        6.8350117490        3.8396228732
  C        15.9466052967        5.6294454401        5.1032682472
  H         7.3429123748        7.0929145032        2.7422666707
  H         8.1117729643        7.3122640821        1.2150106552
  C         6.5235737701        5.6893363800        1.6009283569
  N        11.6964401989       -0.7725666148        1.4854945603
  C        11.8912156060       -0.4939247955       -0.7499806490
  C        12.1037569532        1.6595735635       -1.8610608523
  H        11.7062165864        3.3053707416       -0.5593850312
  H        11.8501175342        1.6742083736       17.4178737792
  H        12.4291324671        3.2262542122       16.8740718934
  H        13.5480138058        2.2558267685       17.7545427741
  S         6.1494956354        6.4359098763       17.8197205592
  C         6.6350733483        9.0287163018       18.3823468475
  H        16.1280896656        4.8714038083        4.3770439971
  H        16.7722148649        6.4015352405        4.9538243195
  C        16.0226181312        5.1088611040        6.6104187730
  H         6.1342488801        5.3849210247        2.5455631114
  H         6.7386716980        4.7375265735        1.0985767207
  C         5.4895557208        6.4832211410        0.8238843173
  S        11.5512822783       -2.2482212651        0.8352221617
  N        11.8361534163       -1.8842162864       -0.6593538940
  C        12.1711889059        0.1918866094       -1.9193569594
  H        12.1096816216        2.3385248068       -2.6407737795
  C         6.2085964323        7.0346283886       19.4686460714
  N         6.2647042057        8.4467019368       19.5682906230
  O         6.7571166036       10.1973079629       18.1598896772
  H        15.8806394193        5.8276572894        7.4025294930
  H        15.3011716291        4.3022388638        6.8457641667
  C        17.4368488993        4.4966807338        6.8020377897
  H         5.8796611386        6.5365535544       -0.2335400943
  H         4.5921758597        5.9561933140        0.7223843912
  C         5.4347384129        7.9930475755        1.2636011059
  C        12.4305778908       -0.5523632361       -3.1513308684
  S         5.6067663451        6.1733138111       20.8411494977
  C         6.2655012462        9.1084336487       20.8652276524
  H        17.3578690913        3.7620966118        7.5783635624
  H        17.5452764678        3.9109521769        5.8928161076
  C        18.5247278490        5.5869613901        7.1656959258
  H         6.2135658382        8.5299262144        0.9729309226
  H         5.2624803124        8.2372832776        2.3798411185
  C         4.0706829250        8.6264074948        0.6254411493
  H        12.2442711439       -1.6577083760       -3.2230439805
  C        13.0334187779       -0.1817881942       -4.3443492447
  H         5.4468492124        8.6895489505       21.4283939578
  H         6.0409073870       10.2642009798       20.7726455701
  C         7.6691794061        9.0962154548       21.4539379981
  H        19.1537903816        5.4331869732        8.0313642856
  H        18.1034922029        6.5383262148        7.5687257036
  C        19.4745307044        5.6229726497        5.9897667915
  H         4.1090789766        8.3442221544       -0.3882154088
  H         3.2842026780        8.0863149973        1.1284594553
  C         3.9018077405       10.1922462833        0.7463739499
  S        13.7654451873        1.3961449949       -4.6950625475
  C        13.2921301687       -1.1684391344       -5.3314742607
  H         7.8899596968        8.1184094105       21.8004047228
  H         7.8596472637        9.9469388088       22.1878408801
  H         8.2996909962        9.0923691115       20.6943900408
  H        19.0164747577        5.9388184288        5.0569838793
  H        20.2808003420        6.3297027065        6.2144734511
  H        20.0018079261        4.6990907135        5.6798589939
  H         3.8590908456       10.3701190751        1.8154847852
  H         4.7385931532       10.7456335228        0.2998344232
  H         3.0631199032       10.4734520700        0.1410840001
  C        14.2307174479        0.6861122392       -6.2364028879
  N        13.8226439198       -0.6219011706       -6.4865694607
  O        12.9017758038       -2.3581687142       -5.2506060919
  S        15.0150776196        1.6563465834       -7.4793754908
  C        14.0551977379       -1.3967925631       -7.7313904430
  H        14.9915271991       -1.9727527809       -7.7468566039
  H        14.0743041316       -0.7016643554       -8.4955994691
  C        12.7343159265       -2.1846238378       -8.1463402266
  H        12.9661334006       -3.3017972988       -7.8056408786
  H        12.6767826135       -2.0734938111       -9.2254182528
  H        11.8922013543       -1.5925186160       -7.6559164183
  H        -2.8393959532       15.2970285270       16.6497105626
  C        -3.0298730254       14.1943298459       16.5668935097
  H        -4.1350594454       14.0449001635       16.8209432065
  C        -2.2469537572       13.2535427120       17.4348489973
  C        -2.8618006183       13.7472813101       15.1030747891
  C        -2.5694553012       13.6022445545       18.9463721872
  H        -2.6327167584       12.2800616713       17.5440663522
  H        -1.1743930718       13.2803469480       17.1953975060
  H        -3.3095382787       12.7959531124       14.8736718719
  H        -3.5497658654       14.4505674972       14.6011018348
  H        -1.9102503805       13.8257423963       14.7169882462
  C        -1.8227638951       12.7946488378       20.0900498233
  H        -3.6428344669       13.5420385443       19.1914396897
  H        -2.2179425683       14.7066767251       18.9516985108
  C        -2.2875330469       13.1920636881       21.4419874120
  H        -2.0016956463       11.6910757694       20.0251396624
  H        -0.8178694371       12.6997144055       19.9992618909
  C        -1.3750222872       12.6633890347       22.5031716589
  H        -3.1775503107       12.7153139376       21.7071256052
  H        -2.5326378492       14.2296688239       21.7021498725
  C        -0.1046863375       13.5554979419       22.7032349384
  H        -1.9902665537       12.4828465174       23.3616249890
  H        -0.9823631434       11.7501928382       22.1190335720
  C         1.1378536006       12.9895814285       23.4695529139
  H         0.2292909071       13.8862910445       21.8214447541
  H        -0.3933870987       14.4068400566       23.2504587360
  C         1.5489999281       11.6275177953       22.9306864232
  C         0.6987768311       12.3274026265       24.7459058335
  C         2.3353034082       13.8693091514       23.7327688192
  C         1.2788153376       10.5754585350       23.7230441184
  C         2.0582775713       11.2492814868       21.6463046678
  C         0.6923197863       11.0032397315       24.8550413408
  C         0.2551100734       12.9367772870       25.8435230504
  H         2.6375282220       14.3544728323       22.7989125401
  H         1.8739134376       14.4505497596       24.4714322253
  C         3.5394220584       13.1621695028       24.3778827880
  S         1.7242923307        9.0755755512       23.0896881109
  C         2.2036187801        9.8679597469       21.5825496890
  H         2.2740832795       12.0191772798       20.9623594594
  C         0.2013823965       10.3378150473       25.9535957298
  H         0.0678818642       13.9468811375       25.8467191565
  C        -0.1319580454       12.3424628389       26.9972078790
  H         3.5692311195       12.0126735204       24.2046681419
  H         3.2293426821       12.9657228516       25.3791550182
  C         4.9003981803       13.9296327609       24.3023203908
  C         2.5999971573        9.1063177980       20.3367982711
  C        -0.2160421917       11.0178694713       27.0826122638
  H         0.0133774900        9.2663746699       25.9897442939
  C        -0.6496007300       12.7969741957       28.1399223172
  H         5.5556773405       13.6542926785       25.0687824740
  H         4.5480120457       14.8669495906       24.6739888297
  C         5.5631110280       14.0968636564       22.9365818127
  C         2.5357067170        7.6177899473       20.1998912526
  C         2.9067021905        9.8993947433       19.1135555975
  C        -0.6940528794       10.2878119588       28.2739342305
  C        -1.0099245126       11.6689340602       28.8882132720
  S        -1.0268805923       14.2531416940       28.8572929498
  H         6.2793879549       14.9134716282       22.9421510291
  H         4.8834997384       14.4262787444       22.2571648667
  C         6.1933182909       12.7906695715       22.5105459794
  N         2.0407732892        6.7560318894       21.1919222382
  C         2.6831533806        7.0313020072       18.9322619405
  C         3.1819707650        9.1423388289       17.8787981368
  H         2.9635313538       10.9246000434       19.0660488280
  C         0.3260182345        9.4941265218       29.1281079243
  C        -2.0928490540        9.5147770380       28.0725070192
  C        -1.5227612195       12.1238209881       30.1116282426
  C        -1.4866431042       13.4896749063       30.2619028458
  H         6.6234377335       12.2515839619       23.3403584536
  H         5.3717637963       12.1793995655       22.1937650794
  C         7.2275807583       13.0947216647       21.3225263627
  S         1.8307682614        5.2713915305       20.4147767299
  N         2.3008501902        5.6820859792       18.8974460025
  C         3.1194746340        7.7200028774       17.7756689946
  H         3.3168087531        9.7351413271       17.0934649894
  H         0.7787966760        8.8121266585       28.4487540710
  H        -0.0911658958        8.8340557814       29.9911356510
  C         1.7070369373       10.2367677256       29.4356431610
  H        -1.8395954797        8.6258207338       27.4694604819
  H        -2.3343500340        8.9860801154       29.0470116376
  C        -3.2636354485       10.3639448893       27.4893933096
  H        -1.6421770871       11.4651641455       30.8204481374
  C        -1.9174406646       14.2172798639       31.5085374968
  H         7.8746162364       12.2045347282       21.0646470534
  H         7.9647191923       13.8816591202       21.4896915498
  C         6.5705894693       13.5637100140       20.0102077232
  C         3.0446979403        7.0393202692       16.5657217604
  H         2.2099424071       10.4215370651       28.4986174047
  H         1.5278267477       11.1957274090       29.8953574629
  C         2.6360966057        9.3114186757       30.0468899991
  H        -2.8540875646       11.1860802346       26.7638830204
  H        -3.8581144299       10.9023971379       28.1864772844
  C        -4.2979260992        9.4296930297       26.8498104911
  C        -1.9069322535       15.5814778698       31.7767353974
  C        -2.1757547945       13.4220106515       32.8111254664
  H         5.8002059529       12.8182112419       19.5639926856
  H         5.9820097465       14.4647920322       20.1706141462
  C         7.7035071988       13.8992863662       18.9330519613
  H         3.1161212664        6.0084359055       16.6984016479
  C         3.4424052496        7.4052531709       15.2409830123
  H         3.0067043823        8.6449250699       29.2808876551
  H         2.2216798715        8.6162459928       30.8363556059
  C         3.9186595596       10.0667909276       30.5751695139
  H        -3.9632023484        8.7320939170       26.1646613722
  H        -4.7996547891        8.9059682356       27.6116850960
  C        -5.4234080009       10.2098107719       26.2189354692
  N        -1.5581905979       16.5749020800       30.8533729676
  C        -2.1231317750       16.1836360902       33.0105630712
  C        -2.4906231300       14.0567583585       34.0930902980
  H        -2.0042000384       12.2871608719       32.7126470991
  H         8.4382311744       14.5839068128       19.3518584983
  H         8.1663603186       12.9824672141       18.4436358498
  H         7.2186522871       14.3485379549       18.0193497701
  S         3.8044984067        8.9408485861       14.6443924386
  C         3.2991823046        6.3221106060       14.2240506303
  H         3.9251487417       11.0906314168       30.0434097840
  H         3.7709548587       10.1888132958       31.7291319403
  C         5.2526348998        9.2441256571       30.3288129139
  H        -4.9854460224       10.8062615399       25.4515587306
  H        -5.8123042912       10.7896739730       26.9711446446
  C        -6.5608047914        9.3287361708       25.5078217846
  S        -1.6309381610       18.0636294150       31.5791121127
  N        -2.0368352436       17.6016960209       33.0368338280
  C        -2.4842787572       15.4655453938       34.2141868367
  H        -2.4684195865       13.3599134149       34.8679436403
  C         3.7250556981        8.2033460876       13.0282879144
  N         3.6596314905        6.8464549174       13.0389075400
  O         3.1649472523        5.1903667043       14.4894447602
  H         6.1441767798        9.7091966379       30.7088536743
  H         5.4207657328        9.1076352812       29.1773323839
  C         5.3574467409        7.8028902306       30.9272140510
  H        -6.0229460346        8.8296193499       24.6333081048
  H        -6.7799699999        8.5119547519       26.2399915982
  C        -7.8012287434       10.0510577521       24.9449590480
  C        -2.6269914416       16.1847971603       35.4172389059
  S         4.1327826181        9.0880287791       11.4521440708
  C         3.4577222101        6.1264379341       11.8203889449
  H         5.9348948305        7.9274551423       31.7980913930
  H         4.3535428558        7.4246419348       31.2212825491
  C         6.0920861816        6.7706535088       29.9397966251
  H        -8.0559995192        9.7319253517       23.9610995803
  H        -7.5072974904       11.1484228615       25.0614516982
  C        -9.0338522081        9.7200408401       25.7353470650
  H        -2.3789892977       17.2401024170       35.2579631657
  C        -2.9136262645       15.7395960667       36.7168807307
  H         4.0700380185        6.5757648930       10.9963159247
  H         3.7740884561        5.0450607526       11.9779097323
  C         2.0158637346        6.0857277866       11.3933014673
  H         6.9464880381        7.1104111626       29.4221303456
  H         5.4942100240        6.3548776363       29.2489510409
  C         6.4708404111        5.4739289930       30.7382396372
  H        -9.9382346158       10.0351846781       25.2129131409
  H        -9.1597357969        8.6622293498       25.7950804349
  C        -9.0863991900       10.4896464606       26.9915475337
  S        -3.2922641515       14.2162392502       37.2258770278
  C        -3.1181699959       16.7996824766       37.7088830216
  H         1.5967728754        7.0730699806       11.2592917735
  H         1.8296586129        5.4034195110       10.5317904538
  H         1.4664178276        5.6450478940       12.2787247687
  H         5.6018060075        4.8579021826       31.2131883339
  H         7.1419894046        5.7007402562       31.6334328588
  H         7.1008613065        4.7914043978       30.0829888771
  H        -8.5929357511       11.4206031149       26.9931117684
  H        -8.8434397746        9.8720248801       27.8369224066
  H       -10.1410120397       10.8027362301       27.0836147445
  C        -3.7186737375       14.9038222436       38.8473303993
  N        -3.6019958976       16.2160122632       38.8803205771
  O        -2.7672262632       17.9666956031       37.5646051523
  S        -4.2175329946       14.1100643286       40.3535103046
  C        -3.8049632264       16.9944482034       40.0647280002
  H        -4.2176730144       17.9644286342       39.7372716949
  H        -4.6677142756       16.5752052960       40.6122110490
  C        -2.5889958893       17.1919451259       40.9461145094
  H        -1.6680635874       17.4337583570       40.2931443518
  H        -2.8658988992       17.9958539517       41.6751482808
  H        -2.2901300745       16.2757987019       41.4970423665
