352
i=
  H         2.5164646131        1.2608276461       12.1401481942
  C         3.2306322959        2.0346448114       12.3402839424
  H         4.1873421623        1.5962788290       12.2701893650
  C         3.0457850463        3.0995458005       11.2722614752
  C         2.9779372842        2.4776491411       13.7301880362
  C         4.1646321325        3.3380600510       10.2642221906
  H         2.8978495057        4.0713995982       11.8682392305
  H         2.1158947611        3.0070722978       10.7059877273
  H         3.8785818768        2.5819439667       14.3544270568
  H         2.3424263959        1.7105650037       14.2268180764
  H         2.5706353931        3.4234139355       13.8469539914
  C         4.3903841946        2.0068861259        9.4741640564
  H         3.8496646301        4.1003609347        9.5970744768
  H         5.0916857609        3.6131690386       10.7446078289
  C         5.3177892257        2.1860187146        8.2069840748
  H         3.4217776664        1.5913538401        9.1524831028
  H         4.8151654419        1.2103601662       10.0765130280
  C         6.6591457648        2.8990145726        8.4350098058
  H         4.7552190827        2.5592326366        7.3417462086
  H         5.6142199494        1.1808249255        7.8180118347
  C         7.7371393631        2.0757868503        9.0694071522
  H         6.8374623775        3.2440008534        7.3759261016
  H         6.4824747946        3.7919085028        9.0139689179
  C         9.1082572623        2.8679513920        9.2724088306
  H         8.0061468663        1.4014720566        8.3002297339
  H         7.3042529066        1.5785751311        9.9508072908
  C         8.9180411049        4.2173051478        9.9081365068
  C         9.5962078887        3.4703669702        7.9865341541
  C        10.0837635273        1.9459360541       10.0769464127
  C         9.1766311838        5.2835997530        9.1255618790
  C         8.4330923885        4.6439230445       11.1735255009
  C         9.6984658821        4.8358159460        7.9451388725
  C        10.0867693718        2.8247149614        6.8769175272
  H         9.6113278677        1.9121571315       11.1133890661
  H        10.1828100323        0.9760124335        9.5608596517
  C        11.4342816900        2.6985333458       10.0936255801
  S         8.8243418094        6.8395932361        9.8601104147
  C         8.2971979217        5.9599406434       11.2281638482
  H         8.2124196575        3.9079866018       11.9325896416
  C        10.2121866173        5.4139595693        6.8221310493
  H         9.9056864802        1.7961048742        7.0129524606
  C        10.5256449984        3.4387423388        5.7294631569
  H        11.2758360278        3.7776256303       10.2232294582
  H        11.9006910079        2.4862645430        9.0749907443
  C        12.4167314951        2.1525955915       11.1606961823
  C         7.8255901960        6.6033953780       12.5130017763
  C        10.5925182143        4.7974552446        5.6688024230
  H        10.2607829210        6.5017189727        6.7749729579
  C        10.8746608920        2.9770210198        4.4896624206
  H        13.4068352385        2.5115065382       10.9408659052
  H        12.5509799870        1.1033793372       11.1762840479
  C        11.8873524395        2.6232251885       12.5174054333
  C         7.7640823821        8.0665713582       12.6649762661
  C         7.2923075430        5.8676349505       13.7037548908
  C        10.9964982642        5.4447189093        4.3420683794
  C        11.2227336504        4.0659945889        3.6925900338
  S        11.0176520942        1.4583966798        3.7344318833
  H        12.5556147803        3.3602546925       12.7063785118
  H        10.9138266313        3.1379025616       12.5415293216
  C        11.9976147376        1.6628153444       13.7053119161
  N         8.1025192985        9.0644880576       11.7094117462
  C         7.5021570577        8.6501724420       13.8774784329
  C         7.1156827877        6.4682256888       14.9461005323
  H         7.2124066254        4.8078169919       13.7687701089
  C        12.3478332209        6.1748961885        4.4071899216
  C         9.8799801998        6.0939806128        3.5434421934
  C        11.5401082234        3.6399528842        2.3957213410
  C        11.5268441698        2.2534141314        2.3243274316
  H        12.6612918723        0.8755633360       13.4680032463
  H        11.0085822100        1.2454227122       13.9283033386
  C        12.4527206673        2.4599468845       14.9234907673
  S         7.9529946069       10.5907394941       12.3416244399
  N         7.3821664973       10.0372316210       13.8204741869
  C         7.2060957063        7.9386460486       15.0646277125
  H         6.8147256583        5.8445948038       15.7932503364
  H        12.2973018531        7.0976028717        4.9577690307
  H        12.6128287335        6.5044267031        3.4077987081
  C        13.4581543830        5.3375758130        4.9989235163
  H         9.6016477854        7.0563944554        3.9929322169
  H        10.2673351092        6.2040788831        2.5902844251
  C         8.5053170846        5.3683123497        3.3292546566
  H        11.7518788875        4.4097743254        1.6253016428
  C        11.8293636511        1.4889467510        1.0955767486
  H        13.5121407806        2.7509760704       14.7490986097
  H        11.9589914222        3.4475853239       14.9002634647
  C        12.4485557003        1.6428154938       16.1624843411
  C         6.9695312656        8.7233784286       16.2614907718
  H        13.0519063812        4.9400540028        5.9352676254
  H        13.6519835576        4.3854879673        4.5371333808
  C        14.6826808236        6.0985186762        5.4276971401
  H         8.1447284569        4.8623444741        4.2505149748
  H         8.7038058015        4.5661194816        2.6402535455
  C         7.3426990639        6.1835764611        2.7620375539
  C        11.7271231351        0.0830763788        0.8829332408
  C        11.9927516091        2.2645391186       -0.2375698979
  H        12.9092253705        0.7591311573       15.9482900037
  H        11.5235379406        1.3618543488       16.5272737896
  C        13.2103923988        2.2445641397       17.3340360349
  H         7.2901091583        9.7200215497       16.2163588649
  C         6.6852182632        8.3700289736       17.5497658719
  H        14.3361157975        6.8878371734        6.0848684074
  H        15.2033564080        6.5933560076        4.5712511674
  C        15.5368576579        5.1880055451        6.3617810981
  H         6.8020905892        6.7611791136        3.5008609615
  H         7.8241502732        6.8880603877        2.0494233811
  C         6.2536003041        5.4152074517        2.0106846949
  N        11.5433236510       -0.8827705993        1.9210751055
  C        11.9100404355       -0.5353042864       -0.3205275039
  C        12.1793331323        1.6044092916       -1.4730818622
  H        11.9418753056        3.3136132734       -0.2139122422
  H        13.7942395875        1.4237624023       17.8343535128
  H        12.4399476671        2.7138049071       18.0600457317
  H        13.9453715071        2.9279378956       16.9705217278
  S         6.3392120822        6.7778904208       18.1086934256
  C         6.6335602860        9.3800466528       18.5968746094
  H        14.9690993654        4.7532637054        7.2915712676
  H        16.0940747806        4.4919961252        5.7807179125
  C        16.6585745513        6.0697498861        6.7744809984
  H         5.5576344828        4.9542654413        2.7664582303
  H         6.6278760220        4.5713127970        1.3652607904
  C         5.5524857487        6.3841520144        0.9830619175
  S        11.4391511849       -2.3618112946        1.2847204266
  N        11.7091721062       -1.9079324815       -0.2682050294
  C        12.1829169235        0.1314119884       -1.5365483760
  H        12.2204994861        2.1629408640       -2.3962532679
  C         6.1502122265        7.5028226899       19.7378236017
  N         6.3536150877        8.8394744089       19.8160026894
  O         6.8283756200       10.5580822400       18.3499053597
  H        16.9372438951        6.6153719569        5.8478576323
  H        16.3899408048        6.8055135567        7.4726728800
  C        17.8956200683        5.3458704654        7.3692425570
  H         6.1652328425        6.8017786493        0.2630723151
  H         4.7929666823        5.7071118242        0.5101081150
  C         4.7669303050        7.5238644716        1.6901695256
  C        12.3997484550       -0.6043897077       -2.7166650956
  S         5.6185769014        6.6594868211       21.1547260251
  C         6.3965782827        9.5882282472       21.0426619608
  H        17.6778539978        4.8508952681        8.3040510770
  H        18.2040599013        4.4818098976        6.7729542518
  C        19.1713277422        6.2342648950        7.4846951837
  H         5.4350322758        8.2893436907        2.1581218931
  H         4.0972995382        7.2188002660        2.4689110008
  C         4.0680156261        8.4722897053        0.7155417249
  H        12.3089257359       -1.7358593813       -2.6351506609
  C        12.8726954784       -0.3137545212       -3.9394678670
  H         5.8061627859        9.1607307648       21.8332293488
  H         5.8439491326       10.5618882733       20.9926344611
  C         7.8183581548        9.8894883696       21.4826736451
  H        19.9772713012        5.7558648313        8.0835977262
  H        18.9507437117        7.1067458250        8.0577770745
  C        19.7632202126        6.5489799877        6.1645756665
  H         4.8679162086        8.9343925892        0.0154526933
  H         3.4106893062        7.8697501700        0.0473494286
  C         3.3599497211        9.5649251911        1.5580725637
  S        13.5752819397        1.1276590996       -4.4580409474
  C        12.9058274205       -1.3859781358       -4.9647035385
  H         8.1926737062        9.2104879427       22.1946713485
  H         7.8389529370       10.8586563085       21.9540628699
  H         8.5339351388        9.9045475851       20.6358441372
  H        19.5864333256        5.6855010169        5.5062167192
  H        19.4038222250        7.4808379159        5.7638150937
  H        20.9043127250        6.6922349440        6.1849971922
  H         3.9703437075        9.9549817129        2.4232336218
  H         2.9509779037       10.3428479821        0.9118705486
  H         2.4729735348        9.0804962181        2.0191531547
  C        13.8999700435        0.3691123337       -5.9762670163
  N        13.5589840815       -0.9843323089       -6.0515869374
  O        12.2952760014       -2.4408557050       -4.7783495189
  S        14.5773925596        1.1316167761       -7.3284473828
  C        13.8366911123       -1.8780578501       -7.1934030340
  H        13.8308447746       -2.9314752342       -6.8515007066
  H        14.7768280662       -1.6571871950       -7.5955120356
  C        12.7772593339       -1.7438976534       -8.2575225090
  H        12.6428628049       -2.7291935807       -8.6806774149
  H        12.9329920103       -1.0574465256       -9.1025242600
  H        11.7874531488       -1.5728906188       -7.7752493082
  H        -0.5287687323       13.2094002130       17.2983574988
  C        -0.9431128129       14.1345643234       16.9279882203
  H        -0.1286892288       14.6478981275       16.4406332377
  C        -1.4176578962       14.9209552972       18.1819737453
  C        -2.0882650747       13.7722908652       16.0034480333
  C        -2.3481775306       14.1301083407       19.0533727740
  H        -0.5400723593       15.2557771960       18.6769280243
  H        -1.9238767516       15.8215269395       17.8287701802
  H        -3.0385471782       14.2664862847       16.1162345509
  H        -1.6501318124       13.7015278754       14.9615270830
  H        -2.3386611133       12.7721911509       16.2195187555
  C        -1.5426368729       13.0736013310       19.8246609035
  H        -2.9813821985       13.7426668888       18.3105506162
  H        -2.8209214254       14.8083959006       19.6660258466
  C        -1.8866038598       13.2288979521       21.2944795745
  H        -1.8014246621       12.0322191609       19.4640888897
  H        -0.4643617329       13.1463137694       19.6739691221
  C        -0.8761711870       12.6705675088       22.2369275831
  H        -2.8085178007       12.5974112389       21.4002178035
  H        -2.1367276738       14.2245082244       21.5995183043
  C         0.1946080149       13.7561771951       22.5316738569
  H        -1.3577858347       12.3158970106       23.1023277385
  H        -0.4271521972       11.8140383194       21.8528418650
  C         1.4443823829       13.1250339047       23.3472841156
  H         0.6658996323       14.1419813938       21.6706246895
  H        -0.2172141684       14.6517956097       23.1290975443
  C         1.9565553148       11.8387847032       22.5936411212
  C         0.9740235164       12.2804608265       24.4860723820
  C         2.6711053567       14.0769871141       23.5321814488
  C         1.7270544842       10.6525338669       23.3025314718
  C         2.6167973459       11.4475800256       21.4162547644
  C         1.1075307787       10.9348275294       24.4921455330
  C         0.4475842991       12.7469514689       25.7379105257
  H         2.9072024833       14.7009540230       22.6361701811
  H         2.3631362185       14.7526563986       24.2900645003
  C         4.0168419464       13.4658388351       23.9664015383
  S         2.3280714137        9.1873087860       22.5776021704
  C         2.7267416569       10.0825894263       21.1844837707
  H         2.7161257692       12.2484377485       20.6648997971
  C         0.7383765105       10.1621603684       25.6524387910
  H         0.3604242221       13.7929365360       25.9667337029
  C         0.0413160647       12.0213841436       26.7798843086
  H         4.4189851930       12.7008581189       23.3145200928
  H         3.9204440845       13.0034075822       24.9860907152
  C         5.1038833169       14.4936724001       24.3593286519
  C         2.9626035671        9.4257988751       19.8783644659
  C         0.2006960411       10.6775339360       26.8315702906
  H         0.9201855614        9.0887934475       25.6474055359
  C        -0.3738457903       12.3189669150       28.0565293099
  H         5.9529059850       14.1086123397       24.8623334775
  H         4.5888010426       15.2074934618       24.9497744370
  C         5.7509472254       15.1430162745       23.0898540507
  C         2.6605702684        8.0832347012       19.5526592016
  C         3.3049010166       10.2842136385       18.6693554086
  C        -0.0656947685        9.8842033339       28.1072991658
  C        -0.4846755773       11.1767836628       28.8547964895
  S        -0.7092387693       13.7567664288       28.9252725624
  H         6.3338150683       16.0224295245       23.4266427578
  H         4.9274016772       15.5829236380       22.4770550567
  C         6.5671435022       14.2257829988       22.2615557488
  N         2.2440216030        7.1441443745       20.5069875311
  C         2.9284723278        7.5344921647       18.2832427642
  C         3.4017096712        9.8188989440       17.3634877775
  H         3.4218696515       11.3689010554       18.8351399207
  C         1.2017159237        9.2598887185       28.7122677306
  C        -1.2475095787        8.9388357693       27.9004850161
  C        -0.8779296231       11.5087156448       30.1892070673
  C        -1.0259891008       12.8756947040       30.3724774139
  H         7.6145232786       14.4455727765       22.3008498965
  H         6.5515464848       13.2116586244       22.6262732842
  C         6.0276072703       14.2144004381       20.7792507326
  S         2.1593440321        5.7092426208       19.7099501351
  N         2.7544629913        6.1493937337       18.3476068582
  C         3.3067307638        8.3179818749       17.1360660358
  H         3.6633999823       10.4732465825       16.5419577790
  H         1.6881299859        8.4881761654       28.0996103958
  H         0.9022460130        8.7639233125       29.5453069714
  C         2.2222115082       10.2624624399       29.1773862489
  H        -0.9782943871        8.3560012095       27.0256917547
  H        -1.4293586212        8.2000641941       28.7167895169
  C        -2.6008670114        9.6904562352       27.7185959487
  H        -0.8798065613       10.6336478655       30.8967434553
  C        -1.4265819710       13.5475442991       31.6823786139
  H         6.1187063218       15.2170632999       20.3848179198
  H         4.9198985532       14.0087804758       20.8680800645
  C         6.6333652208       13.1504234624       19.8289282280
  C         3.4665305979        7.6058192651       15.9185749603
  H         2.3680086024       10.9634099438       28.3741257961
  H         1.8302804425       10.9087143808       29.9262536510
  C         3.4753333171        9.6461159891       29.7559858326
  H        -2.4944920498       10.3471164926       26.8123441353
  H        -2.9508065629       10.2587356228       28.5390563694
  C        -3.7593919086        8.7046059991       27.4432899206
  C        -1.5726435339       14.9125837961       31.9358322918
  C        -1.6082655560       12.6496032656       32.9128920509
  H         7.3654429655       12.4948830955       20.2642785840
  H         5.8488187511       12.4170396581       19.4449732845
  C         7.2860064372       13.7522776355       18.6372718042
  H         3.6144543109        6.5028629518       15.9450754855
  C         3.6648881497        8.0358940434       14.6211941537
  H         4.0144288919        9.1763213194       28.9159689688
  H         3.2006913847        8.8282364350       30.3918748454
  C         4.3065869943       10.7857503863       30.4725107989
  H        -3.5166171474        8.1957396001       26.5348448962
  H        -3.9067908441        7.9307792909       28.2166828793
  C        -5.0933518208        9.4120402578       27.0987189564
  N        -1.5523758218       15.8942897931       30.9203467976
  C        -1.7243086487       15.3791194242       33.1924379582
  C        -1.8654077365       13.1484254482       34.2077481458
  H        -1.5354383525       11.5686740048       32.8333317784
  H         8.2296228396       14.3356700460       18.8675846918
  H         7.4567793461       12.9701158589       17.8813861255
  H         6.6544204895       14.3781367292       18.1215021380
  S         3.9005987270        9.6924862173       14.1543898134
  C         3.8814597978        7.0670501673       13.5136814226
  H         4.2835212675       11.7912530711       29.9768438599
  H         3.8100679100       11.0411888215       31.4062220392
  C         5.8267790821       10.3728600714       30.7461430615
  H        -5.2731060090       10.2564986756       27.8201705787
  H        -5.9064170448        8.6499119710       27.1813674204
  C        -5.1044759061       10.0879080714       25.7234226802
  S        -1.5982600205       17.3332171858       31.6911186730
  N        -1.8046446560       16.7795066099       33.2553762321
  C        -1.8203283877       14.6048794698       34.3496871634
  H        -2.0013038113       12.5013875156       35.0755698408
  C         4.1073099461        9.1313807223       12.5387159446
  N         4.2571319911        7.7811488897       12.4323591022
  O         3.9230329848        5.8609992346       13.6813994440
  H         6.1881728532       11.1648655152       31.4423142097
  H         6.4645795969       10.5131253945       29.8591731612
  C         5.9428074295        8.9569771335       31.3471399566
  H        -4.4357819916       10.8742626047       25.6965298649
  H        -4.9059839465        9.4550241819       24.8672177064
  C        -6.4813243958       10.8196264219       25.5908336230
  C        -2.1280474540       15.3368049492       35.5355695243
  S         4.5973622369       10.2237682309       11.2346441834
  C         4.5363773363        7.1217073321       11.1840711036
  H         6.5028348067        8.9867182824       32.3238261465
  H         4.9443660475        8.6903589197       31.6571739626
  C         6.5911285878        7.8082958390       30.5637252220
  H        -6.2375052401       11.5984912382       24.9191138452
  H        -6.7870612736       11.1916530728       26.6058485330
  C        -7.4743120079        9.8072335814       25.0933018167
  H        -1.7566974414       16.3289985157       35.5612916224
  C        -2.9683130675       15.1107169668       36.6240101051
  H         5.3162495456        7.6499495566       10.6618155425
  H         4.8343587467        6.0583612463       11.3731148419
  C         3.2381022070        7.1049598519       10.5341224097
  H         7.3354623358        8.2876020690       29.9410687476
  H         5.9117781939        7.3753513648       29.8622410642
  C         7.1040182611        6.6021815129       31.4250332787
  H        -7.2755653004        9.6670981586       24.0237482551
  H        -7.4265754984        8.8536855600       25.6743256953
  C        -8.8940474813       10.2965120554       25.0800570986
  S        -3.8164255839       13.6765439424       37.0540146651
  C        -2.9748379552       16.1804482238       37.6806401201
  H         3.1886186282        6.3097435996        9.7974797381
  H         2.3937595236        6.9788547561       11.2350900429
  H         2.9487939832        8.0563141263       10.0656668078
  H         6.3713732359        5.8123757593       31.5840040699
  H         7.4267947284        6.9037422160       32.3695080768
  H         7.9954197123        6.2375005007       30.8270313925
  H        -8.9846783277       11.0732198118       24.3427592648
  H        -9.2532877343       10.6193736749       26.0558534906
  H        -9.5188623806        9.5095453779       24.6433514249
  C        -4.3170155258       14.5748438555       38.4259273749
  N        -3.7825822188       15.8194968958       38.6423919032
  O        -2.4288260297       17.2776458061       37.6033137953
  S        -5.2760379184       13.8746476400       39.7586608524
  C        -3.8838650530       16.6222480875       39.9008813070
  H        -3.9964015581       17.6772044309       39.7943685973
  H        -4.8576262588       16.4055287830       40.4152799902
  C        -2.6824959633       16.3404767189       40.7228730824
  H        -2.8638692197       16.3453315121       41.7527668590
  H        -2.4265391197       15.3463847388       40.4388976101
  H        -1.9520844413       17.1650521738       40.6115339299
