352
i=
  H         2.5814249604        0.8882386905       13.5917188790
  C         3.4404397954        1.5198556933       13.2896647010
  H         4.2884839180        0.8289503502       13.0234044380
  C         3.2088688575        2.3625183492       12.0636190154
  C         3.9911848577        2.3509575807       14.4579394068
  C         4.4335919330        2.3690404443       11.1140610828
  H         3.1853389822        3.4397359575       12.3710269011
  H         2.2931516301        2.0360354065       11.4982002667
  H         4.2870685691        1.7259898180       15.3123920778
  H         3.0998374157        2.9195785963       14.8267176334
  H         4.7299774052        2.9929628748       14.1216590100
  C         4.7146432659        1.0940935966       10.2813870536
  H         4.3309934891        3.2494989696       10.4456528325
  H         5.2506953632        2.6538845615       11.6897878880
  C         5.3681240048        1.3530263735        8.8091628143
  H         3.8530040719        0.5056787949        9.9998673800
  H         5.2550139624        0.4401798587       10.9221199658
  C         6.5198560864        2.3655984459        8.8183456874
  H         4.6247899115        1.7160256240        8.1060760517
  H         5.5690952068        0.4875021111        8.2812350689
  C         7.8242250685        1.7518800896        9.4239057765
  H         6.6322643138        2.6471374113        7.8221165260
  H         6.3824261368        3.2272968191        9.4078426463
  C         9.0279436442        2.7108986437        9.4649079680
  H         8.0912777170        0.9797886329        8.7521761968
  H         7.5842035392        1.2541855106       10.3428659481
  C         8.6672985989        4.1025459601       10.0634833951
  C         9.4663250394        3.4849900500        8.1833981597
  C        10.1685019374        2.0534265682       10.2947552334
  C         8.9022046226        5.2192204999        9.2681568741
  C         8.1047475039        4.5115507508       11.2652798501
  C         9.3297994858        4.8146333195        8.0144734257
  C         9.9838521476        2.9699240138        6.9612811822
  H         9.7284730095        1.5450507446       11.1107700312
  H        10.7232212801        1.4658918385        9.5287471757
  C        11.1573187065        3.1186385134       10.8209941405
  S         8.5439351335        6.7088907326       10.0577590633
  C         8.0850149784        5.8589352821       11.4419668870
  H         7.8290410404        3.7344195684       11.9326691551
  C         9.6106220504        5.4650873319        6.8628654927
  H        10.2814734305        1.9042419773        6.9443046001
  C        10.3116043223        3.6257991912        5.8082995190
  H        10.7437447195        3.9415651565       11.4187896112
  H        11.6022619361        3.6874019200       10.0341014343
  C        12.3491445785        2.5896828372       11.5174974865
  C         7.7325434160        6.5984784275       12.7057570718
  C        10.1423067556        4.9331834549        5.7183989294
  H         9.4210483308        6.5115462767        6.6988075267
  C        10.7108850735        3.1906385898        4.5540416928
  H        12.9035416297        3.4497362340       11.7988233193
  H        13.0231795823        2.1169982802       10.7404421920
  C        12.1692388771        1.7566071747       12.7909832869
  C         7.6094035474        7.9843790391       12.9841047400
  C         7.4442192063        5.7276456794       13.8376892986
  C        10.5387262920        5.6589511358        4.4067795773
  C        10.7431623512        4.3018032984        3.7184220824
  S        11.1230614888        1.7014919026        3.8540187409
  H        11.2368304340        2.1685422256       13.2733635808
  H        12.0346974259        0.7043282864       12.6544118137
  C        13.3258911784        1.9758738394       13.7628937207
  N         7.9302635481        8.9626331085       12.0238083626
  C         7.2436412058        8.5553017480       14.1618446525
  C         7.0205298133        6.2606527061       15.0230678978
  H         7.5159733153        4.6629405030       13.7654671073
  C        11.7308994714        6.5275174822        4.6977636465
  C         9.4706276377        6.4376566635        3.7168857534
  C        11.1640339484        3.9425182287        2.4485336230
  C        11.3276954080        2.5787960439        2.3514573692
  H        13.7013817479        2.9960306970       13.8066993756
  H        14.0702810485        1.4954361024       13.2601256654
  C        13.0789690867        1.3903277916       15.1587762380
  S         7.8470394018       10.3996161327       12.7809351796
  N         7.3996685131        9.9277157749       14.2234153950
  C         6.8977809516        7.7206269785       15.3116479416
  H         6.8598366958        5.5293739320       15.8023017253
  H        11.5843540525        7.0547722598        5.6056057039
  H        11.7150222545        7.3853189523        4.0325224854
  C        12.9603549145        5.6692668401        4.8266810759
  H         9.2836920697        7.3167243852        4.3776571649
  H         9.7822664795        6.7903958482        2.7497610463
  C         8.2238567118        5.6726594001        3.5300186892
  H        11.3064822587        4.6786647806        1.6857884772
  C        11.7304184636        1.8083361930        1.1572066510
  H        12.1326294041        0.8266704667       15.1190378347
  H        13.9448082759        0.8059284690       15.2264116496
  C        12.9929422329        2.3848954553       16.3141358514
  C         6.5055482226        8.3602237375       16.5385186101
  H        12.7388464112        5.1538278103        5.7773609747
  H        13.0620826486        4.9699030231        3.9601532596
  C        14.1724750431        6.4118046116        5.2705976733
  H         7.9091813644        5.1256627237        4.4347068170
  H         8.3625372238        4.9157667722        2.7433231139
  C         7.0305277035        6.5414971002        3.1935352788
  C        11.7567123600        0.3999581989        0.9817631765
  C        12.1798019439        2.5572289168       -0.0386357720
  H        12.0915885111        3.0596351568       16.2342060573
  H        13.9658738716        2.8782694158       16.3634371748
  C        12.9851254180        1.7261354000       17.6910562836
  H         6.4314637366        9.4407936937       16.4574945908
  C         6.1981669308        7.7712814666       17.7684338813
  H        13.8954316278        7.0046591764        6.1271735034
  H        14.4277874270        7.1295213840        4.5203143190
  C        15.3964495841        5.4782247823        5.3347435868
  H         7.0757655955        7.2472500207        3.9350936173
  H         7.2644566246        6.8723684837        2.1828393249
  C         5.6449898094        5.8597265740        3.1075271497
  N        11.5380658945       -0.5433707619        2.0430289118
  C        12.0224687427       -0.2375685974       -0.2468661119
  C        12.3704704687        1.9388112327       -1.2754048592
  H        12.2424128908        3.6055147092        0.0059040457
  H        13.1848835617        2.3922881106       18.5334179492
  H        13.6375814208        0.8966948022       17.7410420970
  H        11.9491794941        1.3624213156       17.7419516801
  S         5.9350787090        6.0752951148       18.1853623249
  C         6.0610043499        8.7120130470       18.8542394885
  H        15.2355251658        4.6894567708        6.0977341865
  H        15.6136552765        4.9167942360        4.4291293782
  C        16.6130609444        6.3521604252        5.7242367768
  H         5.4410986310        5.6244392545        4.1403785167
  H         5.6125896717        4.9702597834        2.5996584340
  C         4.5495377088        6.7292883981        2.4578526497
  S        11.4959523438       -2.0451247131        1.3337556843
  N        12.0292386129       -1.6461570701       -0.1525368794
  C        12.3046456246        0.4184262281       -1.4355703817
  H        12.5893105263        2.5185255940       -2.0878082720
  C         5.6329719696        6.6880185322       19.8190431380
  N         5.7382018490        8.0260685876       19.9717016369
  O         6.1168626917        9.9125459719       18.7444343164
  H        17.1198675437        6.9073699847        4.8668035192
  H        16.2496620025        7.0000510240        6.4741591625
  C        17.6191353371        5.6983577110        6.5592197339
  H         4.6268009570        6.8217285874        1.3900528536
  H         3.6372078403        6.1821667651        2.7610233022
  C         4.4105582588        8.1088835249        3.0685310804
  C        12.4785777834       -0.3143094681       -2.6680285827
  S         5.5169948710        5.6207496616       21.2060357868
  C         5.6806085916        8.5903196730       21.3475803251
  H        17.4849604778        6.1154189737        7.5383924112
  H        17.4943102539        4.6063420903        6.6496664125
  C        18.9675832591        6.0907080265        6.0597223717
  H         4.7725028718        7.9629759461        4.1192255494
  H         3.3354336534        8.3055751913        3.0798740320
  C         5.1420567025        9.1988205630        2.3191385890
  H        12.2924850555       -1.3375263768       -2.5117379780
  C        12.9716776487        0.0405269846       -3.8907200422
  H         4.8339053339        8.0755159974       21.7396355265
  H         5.3918597757        9.6682661236       21.4095315754
  C         7.0837722077        8.3335732614       21.9442802619
  H        19.0195013846        7.1466621977        6.0454480957
  H        19.1439206430        5.6328845852        5.1373329576
  C        20.0048185685        5.5995815038        6.9430753842
  H         5.2265495013       10.0091729062        3.0303942980
  H         6.1507030293        8.8729077202        2.1935438401
  C         4.4594266276        9.6170666376        0.9546473366
  S        13.4805216886        1.6250151954       -4.4229797157
  C        13.0282902587       -1.0007318083       -4.9468958720
  H         7.4480642121        7.3629129077       21.8135564855
  H         7.1735257770        8.5288920768       23.0239747690
  H         7.8651079541        8.9703071367       21.5433352033
  H        20.6192010436        4.9491559192        6.4543223158
  H        20.5493396070        6.3668537686        7.5473534351
  H        19.4673442774        5.1081067348        7.6898869279
  H         4.0456329814        8.7708097801        0.4065572809
  H         3.6004287401       10.3149069194        1.1067556683
  H         5.1219429294       10.1506027483        0.3200510631
  C        13.8141932987        0.8457014900       -5.9673989942
  N        13.6104474272       -0.4879265419       -6.0347033657
  O        12.8530317488       -2.1926246314       -4.7462471175
  S        14.5435745267        1.5671045950       -7.4195186318
  C        13.9398681603       -1.3981393066       -7.1234473798
  H        14.1202290637       -2.4680913272       -6.8153595636
  H        14.9520902495       -1.0973211378       -7.4205466010
  C        12.9154382001       -1.2574193539       -8.2410850456
  H        12.4061354725       -0.3224863757       -8.1550707281
  H        12.0534438615       -1.9780455347       -8.1209273327
  H        13.2971827420       -1.3826543198       -9.2615574275
  H        -3.3504445781       14.5003315907       16.0484786690
  C        -3.1152222415       13.5073135671       16.2898109553
  H        -3.9996758688       12.9627842312       16.5894007101
  C        -2.1350848884       13.3565995872       17.4133088006
  C        -2.6441632451       13.1535223964       14.9574266510
  C        -2.7908802950       13.8458519851       18.6641054247
  H        -1.8255692703       12.3585522249       17.5174762703
  H        -1.1915300149       13.9567785766       17.2087328748
  H        -2.1762911790       12.1724284427       14.9025217281
  H        -3.5280407928       13.3287120965       14.3557285873
  H        -1.8069582444       13.7493350896       14.6344189063
  C        -1.6660320290       13.9606389117       19.7461606474
  H        -3.6016964689       13.2277083189       18.9909452524
  H        -3.1995170112       14.8677681997       18.4807515092
  C        -2.2649237283       13.7542371478       21.1690280986
  H        -0.9227439811       13.2302341987       19.6083574167
  H        -1.2012861021       14.9841976057       19.6049788864
  C        -1.2760113045       12.9336220017       21.9708595743
  H        -3.2586510384       13.2795137619       21.1431011394
  H        -2.4548944927       14.6869379513       21.7403831010
  C        -0.1380762646       13.7794930178       22.6462574774
  H        -1.8608770298       12.4260459764       22.6748203110
  H        -0.9294077426       12.0807186755       21.3801763471
  C         0.9513936092       13.0743078312       23.5046131342
  H         0.3941433408       14.1805107506       21.7508042872
  H        -0.4826486638       14.6116456116       23.2273052911
  C         1.3206820345       11.6651462767       22.8419917314
  C         0.4422390285       12.3339776755       24.7533979402
  C         2.1055183100       14.0737261217       23.7086616195
  C         1.0618104902       10.6024997000       23.5488375314
  C         1.8749598515       11.3818678785       21.5816733145
  C         0.5087057019       10.9524946975       24.8115975847
  C        -0.0299767676       12.9073047528       25.9062054677
  H         2.2529580842       14.6382566533       22.7734538406
  H         1.9853482690       14.7990770654       24.4686214394
  C         3.4389047819       13.3403291228       24.0369375548
  S         1.3291592115        9.1886396782       22.7513807794
  C         1.9575652416       10.0672175182       21.4099981129
  H         2.2106223395       12.1715157167       20.8477220389
  C         0.1608062032       10.2981831344       25.9251383857
  H         0.1180515154       13.9805766186       25.9606877935
  C        -0.4187007257       12.1878664823       27.0227552328
  H         3.6586862376       12.6582341835       23.2139544388
  H         3.2638227781       12.6662831226       24.8207618363
  C         4.6792181208       14.3449209860       24.3395253359
  C         2.3870783610        9.4073280377       20.1594300648
  C        -0.3789773797       10.8250384098       27.0821236675
  H         0.3163974552        9.2452422651       25.9359580053
  C        -0.9460930105       12.5319598565       28.2801840327
  H         5.3839014481       13.7587183446       24.8773301402
  H         4.4033597738       15.1631882803       25.0164092043
  C         5.2366191849       14.8340147977       23.0042241660
  C         2.2906026753        8.0285223356       19.9502868387
  C         2.7653855481       10.2220717883       19.0311054375
  C        -0.7435732276       10.1639521668       28.3200010665
  C        -1.1611093056       11.4138699214       29.0500264601
  S        -1.1499000225       14.0038038418       29.0055888329
  H         5.7996034487       15.7392383186       23.2089428085
  H         4.3777799877       15.0972086284       22.3961803184
  C         6.1010979067       13.8429462526       22.3670551658
  N         1.8437201710        7.0518440562       20.8894978435
  C         2.5103809709        7.4411462575       18.7358410694
  C         2.9984068800        9.6331282703       17.7768912179
  H         3.0461937207       11.2299312192       19.0997639329
  C         0.4517642586        9.5421667997       29.0486803928
  C        -1.9937279771        9.3757014519       28.0232127641
  C        -1.4534170806       11.7827655945       30.3942704530
  C        -1.5993038424       13.1636624053       30.4552893825
  H         7.1642274555       14.1213413039       22.3862016044
  H         6.0232496280       12.8686724138       22.8542087759
  C         5.6832251642       13.6791595274       20.8928708945
  S         1.8289921722        5.6113267602       20.2161654840
  N         2.2353353497        6.0744464580       18.7413934915
  C         2.9434020995        8.1376895943       17.6033178591
  H         3.4054173867       10.2600721452       17.0040990099
  H         0.8798547246        8.7839177299       28.3587562491
  H        -0.0038679934        8.9915868627       29.8756944978
  C         1.6403346510       10.3822860520       29.4233397347
  H        -1.8541239631        8.5262783316       27.3382430323
  H        -2.2966945331        8.8387136972       28.8565710082
  C        -3.1487457702       10.2191907291       27.4288049972
  H        -1.5127994085       11.0441347883       31.1805448035
  C        -2.0058410980       13.9383009603       31.6769390603
  H         5.9076753403       14.6976515971       20.5223837877
  H         4.5827920102       13.5712040500       20.8098590300
  C         6.3542828789       12.6625382886       20.0064637814
  C         3.1587261539        7.3839276748       16.4147334068
  H         1.9398482207       11.1282351728       28.7185573488
  H         1.3934876458       10.7570551350       30.4417288906
  C         2.8320245670        9.5353509799       29.6416941312
  H        -2.8387218528       10.9940627350       26.6610516743
  H        -3.5134790776       10.8589265988       28.2425672094
  C        -4.4113421183        9.5333646842       27.0610419087
  C        -1.9970475172       15.3433174493       31.8768719485
  C        -2.3235872002       13.1104413689       32.8969253995
  H         6.8653447312       11.8402647457       20.4900427982
  H         5.4327555689       12.1552700613       19.5645034652
  C         7.2170846240       13.2306592871       18.8159512312
  H         3.0267670122        6.3180011720       16.4786799418
  C         3.4417388317        7.8441993101       15.1097967155
  H         3.3230729961        9.0463641527       28.8442897882
  H         2.3541839833        8.7257885101       30.1468227116
  C         3.8802774779       10.1390764052       30.6204716632
  H        -4.2545224146        8.7129880161       26.4195459438
  H        -4.8233589761        9.0806887146       27.9072896666
  C        -5.3984139028       10.4721233620       26.5012184945
  N        -1.7614458275       16.2555109847       30.9056689920
  C        -2.3888179559       15.9456552620       33.0765640159
  C        -2.6828064068       13.7618541567       34.0516180757
  H        -2.4478210052       12.0758887548       32.8102832006
  H         6.5901956227       13.8410726555       18.1074129521
  H         8.0027886917       13.8248647159       19.3735014216
  H         7.5919956410       12.3173376173       18.2780233285
  S         3.7285834347        9.4776428231       14.6046818698
  C         3.5559771237        6.8896792736       14.0362104478
  H         4.0435290187       11.2183516355       30.3735166151
  H         3.4201213792       10.2744402636       31.6451203220
  C         5.0900063417        9.1897545012       30.7770384994
  H        -5.0760655933       10.9873014776       25.6146644831
  H        -5.7127932342       11.1001585302       27.2833766828
  C        -6.5670263280        9.6555214461       26.0587379493
  S        -1.6441233307       17.7601665985       31.5855688101
  N        -2.2831262180       17.3357569551       33.0547200444
  C        -2.7775287270       15.2040374585       34.1948851981
  H        -3.0276610933       13.1840693096       34.8587270137
  C         4.0075967743        8.8318994596       13.0145819786
  N         4.0133925343        7.4573937196       12.9377710688
  O         3.4123322394        5.6578714250       14.2027602790
  H         5.6476120800        9.5961021288       31.6023711014
  H         5.7417459304        9.0761201849       29.8996782570
  C         4.6834816700        7.7455999706       31.3519978264
  H        -6.3466739883        9.2727500622       25.0503203681
  H        -6.6567303780        8.6945399463       26.6024967537
  C        -7.8645450274       10.5827450633       25.9100337493
  C        -2.9791687084       15.8755863328       35.4210687754
  S         4.4957997761        9.7809437438       11.5712730496
  C         4.1942031415        6.6682076978       11.7517853450
  H         4.4927988186        7.7532048645       32.4503448741
  H         3.8178855573        7.2280748734       30.9448729060
  C         5.9392236312        6.8374905692       31.1144746469
  H        -7.6288577447       11.4754053282       25.4260693728
  H        -8.2090323262       10.9581856511       26.8788350061
  C        -8.9737410910        9.9384722095       25.1415450077
  H        -2.6868252563       16.9105571261       35.3506237176
  C        -3.5373028930       15.5246579721       36.6174403243
  H         5.1951650986        6.8748178282       11.3434258420
  H         4.1878933799        5.6085054053       12.0071347577
  C         3.0732546949        6.8912436880       10.7047109764
  H         6.6406737156        7.0830219982       31.8678901267
  H         6.3873143303        7.1832794842       30.1747612345
  C         5.8378749340        5.3971347235       30.8873912940
  H        -9.2149115580       10.7153476409       24.3508693637
  H        -8.7161611951        9.0267855005       24.6595632608
  C       -10.2036347373        9.5437050862       26.0153406411
  S        -4.2603601356       13.9948335533       36.9817697214
  C        -3.3831447991       16.5325819861       37.7369935108
  H         3.5622161213        7.2660420194        9.7649596103
  H         2.5674927052        5.9279396131       10.4691919817
  H         2.3770207576        7.6749277704       11.0104694390
  H         6.7690137856        5.0079764858       30.5383081498
  H         5.2342059995        5.1250845072       30.0725911363
  H         5.4561684508        4.8395872975       31.8162227779
  H       -10.8991763034        9.0318737039       25.4082191149
  H       -10.6316293397       10.3716688366       26.5483701688
  H        -9.9642335201        9.0003750580       26.8531351251
  C        -4.4365968812       14.5820776680       38.5644928697
  N        -4.0125723983       15.8696677257       38.7614893182
  O        -2.8786586277       17.6438537693       37.6267143203
  S        -5.2643045659       13.6843350736       39.8583267579
  C        -4.2411804140       16.6112250702       40.0135791083
  H        -4.5030424714       17.6642169412       39.8094801016
  H        -4.9648267200       16.1665196179       40.6184028904
  C        -2.8776832560       16.7587598939       40.8385264322
  H        -2.8269108454       17.7007440026       41.3290170391
  H        -2.7845627683       16.0167632625       41.5987091314
  H        -2.0520420213       16.8811611398       40.1808410193
