352
i=
  H         3.9389636669        1.3884319159       12.8121563179
  C         3.6895665416        2.4340880174       12.8898514973
  H         4.6529942502        2.9867609463       12.8687311616
  C         2.8178457557        2.8182142496       11.6573075968
  C         2.9754975378        2.7245053111       14.1985423424
  C         3.5646069190        2.9283368273       10.3350210273
  H         2.1989279550        3.6641040796       11.8024262172
  H         2.0788852755        2.0407981291       11.6402826237
  H         2.4293412871        1.9305391453       14.6680839034
  H         2.3317286909        3.5447010627       14.0853941167
  H         3.7322670722        2.9867292783       15.0013404420
  C         4.2584069172        1.6830075555        9.9558522758
  H         2.8144819985        3.2972066391        9.5602044612
  H         4.1401439530        3.8655284386       10.2618134922
  C         5.1293687846        1.7224287887        8.6903211389
  H         3.6851514561        0.7703204835        9.9980946326
  H         4.9147460268        1.3281268917       10.7845646220
  C         6.2086429738        2.7541551728        8.6865341388
  H         4.5657753316        1.8141573288        7.8183152246
  H         5.5446236934        0.7368739504        8.6203067620
  C         7.5631719049        2.1842277189        9.2456016720
  H         6.3468150589        3.3257237568        7.7695387357
  H         5.7744091650        3.5096069102        9.3090005945
  C         8.7812699482        3.1234539241        9.3848542966
  H         7.8591579139        1.4401151261        8.5510119062
  H         7.3195470647        1.5997467045       10.1295553805
  C         8.4682325575        4.4537185463       10.0115446638
  C         9.2478731922        3.8315392082        8.0794281834
  C        10.0133076830        2.4048757131       10.0417106321
  C         8.7537462126        5.5941372574        9.2144483678
  C         8.0563858353        4.8533105418       11.2995277046
  C         9.3167978947        5.1916276115        8.0111813964
  C         9.6615381782        3.1687777278        6.9399862718
  H         9.6322082687        2.0504772937       11.0389077453
  H        10.3128147156        1.4821995434        9.5670042951
  C        11.1712757646        3.3975858805       10.2662258295
  S         8.4555604286        7.0869157931       10.0296357399
  C         7.9473987709        6.2007414781       11.4096588728
  H         7.7874953622        4.0919456138       11.9714867093
  C         9.7496256458        5.8182626875        6.9003601007
  H         9.7287348703        2.1029880346        6.9111222329
  C        10.0835448494        3.8593145970        5.8542096373
  H        10.7690471061        4.3183167140       10.7510268423
  H        11.5849389458        3.7900484778        9.3308769119
  C        12.2829015149        3.0136095330       11.2305821501
  C         7.4552367924        6.9152813481       12.6930269980
  C        10.1022048131        5.1920761096        5.7338105110
  H         9.7353950708        6.8519531785        6.9322406426
  C        10.4826181825        3.5913847317        4.5449309179
  H        13.0690605419        3.8596014201       11.2519520036
  H        12.8939076220        2.0786096953       10.8786393951
  C        11.7238308567        2.7629965788       12.5965953269
  C         7.4558694773        8.3283073618       12.9749315570
  C         7.0539226249        6.0718836626       13.8741273504
  C        10.4547779304        5.9684418048        4.5489142151
  C        10.6856370015        4.7070393641        3.7508415812
  S        10.8323363709        2.1538077367        3.6827747270
  H        10.9722527639        3.5413787281       12.7892880601
  H        11.2084611928        1.7709730882       12.5976570181
  C        12.7721608240        2.6629252488       13.7206695077
  N         7.6397708198        9.2752942871       12.0225974799
  C         7.1896615100        8.8457347897       14.2373030514
  C         6.7360052071        6.5934168856       15.1029188480
  H         7.0947443799        5.0401862504       13.7679478852
  C        11.7031955988        6.8566349779        4.7950952994
  C         9.3720104604        6.9255979511        3.9581122733
  C        11.2596951451        4.3902083830        2.4576734123
  C        11.3587117645        3.0173201392        2.3022591787
  H        12.5568995380        3.5494850438       14.4402014860
  H        13.7999836355        2.9193776780       13.4538585389
  C        12.9039081805        1.3013929764       14.5029134902
  S         7.7717189580       10.7344003601       12.7750834589
  N         7.4315625038       10.1934443268       14.2682356151
  C         6.8552285486        8.0349384995       15.3683499755
  H         6.5015120973        5.9279116633       15.8332237921
  H        11.5871112006        7.5726275951        5.6441815490
  H        11.9488735589        7.3501711703        3.8758297189
  C        12.8273686483        6.0695482630        5.2706353044
  H         8.9342092328        7.5538760325        4.7206785496
  H         9.8936122248        7.6300424364        3.2792469018
  C         8.2176276028        6.1261209492        3.3154991555
  H        11.3840644106        5.0945027728        1.6930108182
  C        11.5565536345        2.2714888841        0.9742476218
  H        12.0672975307        0.6060600864       14.3991501770
  H        13.7608136250        0.7490345284       14.0849854885
  C        13.1623337771        1.6581177815       15.9366803397
  C         6.6508636753        8.5326026219       16.7371944348
  H        12.5854851808        5.6691881083        6.2514920394
  H        12.8746024209        5.1305290317        4.6795785087
  C        14.1206557330        6.9825404815        5.4112561865
  H         7.7621933645        5.5587176842        4.1617406875
  H         8.6581582751        5.4719902950        2.5269291193
  C         6.9705515815        6.9539854450        2.8948844833
  C        11.5924609689        0.8354449643        0.9289567507
  C        11.8509925125        3.0391532412       -0.2657825829
  H        13.8176841320        2.5762462561       16.0318814117
  H        13.7081384036        0.8398184377       16.4724011083
  C        11.9612933546        2.0479752019       16.7670646482
  H         6.6097152294        9.6737665437       16.6955708007
  C         6.1867227349        8.0432355991       17.9569326844
  H        14.0650121305        7.6527770365        6.3405161152
  H        14.3150084825        7.6362074088        4.5699170435
  C        15.4469367555        6.1813126790        5.5974804057
  H         6.7837397421        7.6037677989        3.7471007122
  H         7.3675184825        7.6857183783        2.2309617277
  C         5.7764150343        6.3041333137        2.2006440213
  N        11.4316019401       -0.0720090604        1.9304014173
  C        11.8861523388        0.2079836584       -0.3302742205
  C        12.0770167411        2.3811964163       -1.4747362879
  H        11.7218976748        4.1202920135       -0.2879075398
  H        11.3239212206        1.2007507327       16.6293882986
  H        11.5025543927        2.9448987093       16.5278936804
  H        12.2455972543        2.2145514691       17.8793448998
  S         5.8823566873        6.4051703463       18.3431852647
  C         6.0590884764        8.9839236834       19.0844506145
  H        15.4328799469        5.2725013636        4.9797903603
  H        16.2897380497        6.7606690793        5.2035220954
  C        15.5231969258        5.6329833315        7.0994732718
  H         4.9358138073        5.9705676455        2.8495148844
  H         5.9972067700        5.2958382129        1.6715151004
  C         5.2126678517        7.3489054705        1.2510073502
  S        11.5364807486       -1.5602528935        1.3112639971
  N        11.8984414586       -1.1600433116       -0.2099710043
  C        12.1564766409        0.8653472870       -1.5446369165
  H        12.2563370107        2.9913381108       -2.3668399613
  C         5.6973432328        6.9337402963       20.0400230529
  N         5.8061301114        8.2644700607       20.2148690414
  O         6.2721148595       10.1728235872       18.9961963811
  H        15.5018165091        6.4384708582        7.7723876923
  H        14.5837260868        5.1526050417        7.2702261783
  C        16.7724218068        4.7346474077        7.2492013394
  H         5.9977194476        7.8585187728        0.7067909655
  H         4.6441639039        6.8061282194        0.4282505783
  C         4.3538146976        8.3177153984        2.0286355879
  C        12.5358830471        0.0470681274       -2.6225323237
  S         5.2168167994        5.8800236983       21.4121220847
  C         5.8803899276        8.9545538674       21.4556373440
  H        16.7935299944        4.4541491569        8.3187158366
  H        16.5644792121        3.7234329023        6.8519083024
  C        18.1463807764        5.3702013977        7.0702182656
  H         4.9876259724        8.8376822488        2.7630773026
  H         3.5616450725        7.6427122635        2.4864012433
  C         3.6520995438        9.3447445675        1.0836982486
  H        12.4468682038       -1.0341329078       -2.6171803144
  C        13.1730661887        0.3908829670       -3.8687041478
  H         5.4259687380        8.3878729970       22.2717888694
  H         5.5264579263        9.9785288853       21.6124072503
  C         7.3820922105        9.1111624355       21.9416839426
  H        18.5818477806        5.0927831823        8.0002131667
  H        17.9727571000        6.4264039419        6.9784275338
  C        19.0675143613        4.8900770094        5.9125601902
  H         3.2358515925        8.8723587284        0.2666386389
  H         2.8583402624        9.9884012682        1.5509569412
  C         4.5492558838       10.4053349509        0.5486962793
  S        13.7498391205        1.9043617680       -4.3398418152
  C        13.4336795859       -0.7809510123       -4.7607227260
  H         8.0169977603        9.6874007299       21.2081195766
  H         7.8506230651        8.1883872804       22.1843534607
  H         7.3796227159        9.6427234973       22.8977130553
  H        19.9034477166        5.6128567936        5.9260649132
  H        19.4233828296        3.8615495762        6.1167111212
  H        18.5390458375        5.0049851570        4.9640871404
  H         5.5598177757       10.0579366253        0.4861001786
  H         4.2559545494       10.6537992817       -0.4285445306
  H         4.4769292500       11.3000930302        1.1665618066
  C        14.3334978461        1.0853236536       -5.8063917351
  N        14.0684759446       -0.2456960635       -5.8450839922
  O        12.9724003953       -1.8960576414       -4.6415328464
  S        14.6147185719        2.0000117450       -7.2045576234
  C        14.3629757267       -1.0688255482       -7.0303086050
  H        14.5772738899       -2.0955742946       -6.7026008422
  H        15.1823758145       -0.7763859318       -7.7614029474
  C        13.1173550835       -1.0545796874       -7.9800086277
  H        12.9648459519       -0.1721612562       -8.6310265256
  H        12.2516853200       -1.2147398586       -7.4503585838
  H        13.2410018062       -1.9299024620       -8.6201992482
  H        -4.1464202738       14.4773907889       16.7400488661
  C        -3.7788587395       13.4601916345       16.5615909344
  H        -4.6881081202       12.8384797681       16.7316937855
  C        -2.7243008439       13.2474762206       17.5533173147
  C        -3.1342921021       13.3780648782       15.1646104374
  C        -3.1865479627       13.4474385427       19.0153921898
  H        -2.3734303117       12.1882316290       17.5577341064
  H        -2.0041362659       14.0791919513       17.4032109736
  H        -3.3651555655       12.4449865399       14.6341999003
  H        -3.4648674742       14.2525856073       14.5152593392
  H        -2.0863341796       13.3322630779       15.2536324355
  C        -1.9978214914       13.1710488645       19.9687425843
  H        -4.0891048387       12.8626135139       19.3787353932
  H        -3.4412325986       14.5004791577       19.1956782484
  C        -2.4192993801       13.2950304466       21.3905913774
  H        -1.5936472899       12.2080112158       19.8345610044
  H        -1.2477058653       13.8829960644       19.7196789074
  C        -1.3819693326       12.7884499221       22.4319844686
  H        -3.2424092331       12.7212650598       21.3169761187
  H        -2.8154762861       14.3271728777       21.6713927972
  C        -0.0214749534       13.5640925329       22.5128796783
  H        -1.8337881754       12.8503452786       23.4761403228
  H        -1.1102787574       11.7345887702       22.3643076175
  C         1.0807977190       12.9554865599       23.3655552736
  H         0.2732255961       13.8506456142       21.5052092931
  H        -0.1842651098       14.4806114672       23.0634453363
  C         1.3734080426       11.5681293070       22.6750967141
  C         0.5831915309       12.3500152196       24.6285300494
  C         2.2923413551       13.8993870398       23.5999643657
  C         1.1433303200       10.5137922045       23.5370462584
  C         1.7863949308       11.1865313737       21.3948391780
  C         0.6125796710       10.9683336431       24.7512976584
  C         0.0838932582       13.0513745485       25.6847415916
  H         2.3198122027       14.5562802026       22.6944203553
  H         2.0407995888       14.5750292762       24.4195584097
  C         3.6546595638       13.1620342062       23.8804976879
  S         1.3775163837        8.9555682378       22.7941434749
  C         1.8729583489        9.7909307534       21.3120289939
  H         1.9513912757       11.9898654720       20.6236399843
  C         0.1600216123       10.4179731176       25.9172944299
  H        -0.2091247142       14.0608115803       25.5908644200
  C        -0.2856767750       12.4789238635       26.8627249771
  H         3.8232339354       12.2725628471       23.2020189554
  H         3.6095141309       12.6633234866       24.8080106113
  C         4.8220361233       14.0325832288       23.9625191804
  C         2.4129871326        9.1334829704       20.0570869695
  C        -0.2958302955       11.1585896211       27.0263406114
  H         0.2616705857        9.3115350706       25.9053500268
  C        -0.8380752824       12.9033068109       28.0673528428
  H         5.7277502013       13.6418255989       24.6060690327
  H         4.3916157123       14.8457848544       24.4508689498
  C         5.4124213430       14.3948270785       22.6174118532
  C         2.3465610926        7.7624626960       19.7689415152
  C         2.8449731938       10.0787420032       18.9577949306
  C        -0.7296564741       10.5160817382       28.2863470961
  C        -1.0670414911       11.8936449407       28.8907837453
  S        -1.3061590751       14.3825069206       28.7590128285
  H         5.9339353660       15.2684087751       22.6356913998
  H         4.5083001169       14.7479448472       22.0999873175
  C         6.2368490136       13.3964962810       21.8282203158
  N         1.8715492615        6.7928607496       20.6780075184
  C         2.6080734435        7.2653331443       18.5070498514
  C         3.1597427707        9.4992978235       17.7046308426
  H         2.7811094778       11.1118573490       19.0411273831
  C         0.3530532552        9.7230636664       29.1251961043
  C        -1.9922603249        9.7877340318       28.0761780068
  C        -1.5772896199       12.1981931138       30.1480461795
  C        -1.5935967389       13.5534187716       30.2833820454
  H         7.3268578427       13.5292991596       22.0013396911
  H         6.0022214069       12.4289524582       22.2736319028
  C         6.0344517439       13.4913509139       20.3712740129
  S         2.0787532368        5.3440971847       19.9846946220
  N         2.4138595071        5.9047157809       18.4757309254
  C         3.0439909311        8.0755524463       17.4199903042
  H         3.4726782334       10.2312049181       16.9485522600
  H         0.6527202171        8.7337816213       28.7966623299
  H        -0.1298314675        9.3927482172       29.9886340470
  C         1.5901314453       10.4980386202       29.5059144389
  H        -1.7156248228        8.8895115449       27.6168137604
  H        -2.3569610620        9.4562638267       28.9991037462
  C        -3.0858872814       10.5323342367       27.3584717694
  H        -1.7084683333       11.2995113953       30.7955433087
  C        -1.8078619041       14.2217625784       31.5916804190
  H         5.5260725159       14.3638855552       20.0336956129
  H         5.4462379626       12.6865133403       20.1524203927
  C         7.3323302942       13.3354913236       19.5298637671
  C         3.3608928803        7.4870418016       16.1397155198
  H         2.0016675384       10.9014581910       28.6337773916
  H         1.2403863569       11.2504007374       30.2129436297
  C         2.6727894566        9.6232164025       30.1923356395
  H        -2.6847787490       10.8732667089       26.3605540620
  H        -3.2837458967       11.5357498193       27.8104162539
  C        -4.2937973757        9.6013365283       27.1515065228
  C        -1.8869763499       15.6341659783       31.7724958060
  C        -2.2954122932       13.4046679584       32.7386934859
  H         8.1872477964       13.9644997261       19.7823806653
  H         7.7526370528       12.3780544546       19.6687121942
  C         7.1274700414       13.4193833297       18.0354243527
  H         3.3114826348        6.4291623787       16.1429145916
  C         3.5833002233        7.9755923133       14.8816336780
  H         2.9208309397        8.7479852461       29.5176200010
  H         2.2077266615        9.2601812471       31.1330264938
  C         3.9724309184       10.2542427280       30.4464744583
  H        -4.2092201368        9.0257595301       26.2027659587
  H        -4.4806736786        8.9254884001       27.9984288123
  C        -5.4461793806       10.4671924145       27.0107177748
  N        -1.5626661423       16.5238168768       30.7469769324
  C        -2.2285236172       16.1983582411       32.9626557087
  C        -2.5682752231       13.9833464510       33.9517344910
  H        -2.3253520243       12.3266310425       32.7133217088
  H         8.0550152815       13.3709299355       17.4748395889
  H         6.4988561897       12.6808774310       17.5840522798
  H         6.5908188900       14.3603997721       17.7484091948
  S         3.6665916725        9.5304536181       14.3849734761
  C         3.5083512236        6.9277968717       13.8250180203
  H         4.0535117420       10.8985337065       29.5508450442
  H         3.8346867527       10.8929786040       31.3181535805
  C         5.2144411530        9.4594584579       30.7445062498
  H        -5.2929368087       11.1529061176       26.1639297779
  H        -5.8042899442       10.9550259327       27.9039865501
  C        -6.6815228821        9.6599389490       26.7028827093
  S        -1.7774528071       18.0369597251       31.3758688328
  N        -2.3167901124       17.6061276696       32.8697570456
  C        -2.5462494111       15.4878684752       34.0932934388
  H        -2.7588425112       13.2598228998       34.8051992645
  C         3.8963972036        8.8525651143       12.7442266523
  N         3.8312145289        7.4816122847       12.6837968960
  O         3.5371453238        5.7234821286       14.0511182930
  H         5.9413469518       10.0120420692       31.3146756161
  H         5.6323705891        9.2998221278       29.7901291412
  C         4.9845927929        8.0536573421       31.2736903064
  H        -6.3880266998        8.6393776669       26.3592063629
  H        -7.2013105922        9.4695565500       27.6209281751
  C        -7.5147080304       10.5010966891       25.6983196814
  C        -2.9060411866       16.1738056026       35.2951466938
  S         4.2838189753        9.6882182870       11.2510327902
  C         3.9334825356        6.7382252400       11.4589433952
  H         4.8341598588        8.2592164125       32.2948173187
  H         4.0839167643        7.6175686662       30.8869885714
  C         6.1461015264        7.0807765436       31.2787943346
  H        -6.9652980054       10.5494163987       24.7640458709
  H        -7.6333859726       11.5033128107       26.0833544567
  C        -8.8752869524        9.8707804863       25.5006549681
  H        -2.5102830271       17.1363863356       35.2157826220
  C        -3.2120901595       15.8809628976       36.5724259735
  H         4.6640910008        7.1591301301       10.7323991883
  H         4.3927555695        5.6900966230       11.6475299585
  C         2.5252693521        6.5702038505       10.8697786922
  H         6.0329647718        6.5992292569       32.2268034381
  H         7.0998403275        7.5760582544       31.3887271412
  C         6.2100034415        6.2430651441       30.0108368595
  H        -9.3213912795       10.2292106378       24.5770084223
  H        -8.8236365606        8.8393973085       25.2478527762
  C        -9.8840394344       10.0687932322       26.6074954434
  S        -3.5542778203       14.2774733447       37.0705757592
  C        -3.3270173969       17.0288798875       37.5485105707
  H         2.2515891354        5.5915705178       11.0972763275
  H         1.7694136460        7.2439068258       11.1981543216
  H         2.6732396763        6.5341120026        9.7616558110
  H         6.7494728254        5.2966250329       30.2365914244
  H         6.7369131571        6.7059960169       29.2385657960
  H         5.1768129899        6.1085957524       29.5848072159
  H        -9.4448953476        9.9123378515       27.5841463734
  H       -10.5853254811        9.3082831962       26.6390075564
  H       -10.3966936717       11.0219589535       26.5892049752
  C        -4.0113609227       15.1879911696       38.6156867473
  N        -3.9087301099       16.5361630823       38.6543052653
  O        -3.1301531607       18.1570601290       37.2074083564
  S        -4.9035824594       14.5789264354       40.0167063670
  C        -4.1810759464       17.4268106223       39.7308839665
  H        -4.4181860445       18.3976594660       39.3544147665
  H        -5.1065285694       17.2783168146       40.3807267042
  C        -2.8971378556       17.5175880291       40.4778290212
  H        -2.7765047889       18.3068998909       41.2733673933
  H        -2.8128256328       16.5252797682       40.8849353355
  H        -2.1419811289       17.5843862128       39.7722445805
