352
i=
  H         4.7363447994        1.4696580002       13.0555202295
  C         4.0458302885        2.2514729987       13.2736334985
  H         4.6730904164        3.0994152045       13.4400669490
  C         3.2049375050        2.6412023603       12.0615287226
  C         3.0538375775        1.8997049219       14.3950093453
  C         4.0271058236        2.8214639341       10.7834826124
  H         2.6626262661        3.5693631027       12.3881969832
  H         2.4415862360        1.8857092599       12.0515377895
  H         2.7141003482        2.7550872535       14.9295523569
  H         3.6249937200        1.4185944248       15.1627030013
  H         2.3729437852        1.1544241616       13.9756811007
  C         4.4318789977        1.6106491524       10.1117791394
  H         3.4769775005        3.4867755327       10.0948555945
  H         4.9674160580        3.3277055274       11.1125164045
  C         4.9974365514        1.8010983287        8.6237819935
  H         3.5392680091        0.9355351667       10.0775500439
  H         5.2840072947        1.2092314963       10.7199616493
  C         6.3376597888        2.6172043531        8.6112815758
  H         4.1904853648        2.2529113623        8.0316431212
  H         5.0460238201        0.7761070310        8.2066583213
  C         7.5984393834        1.8297402193        9.0200025816
  H         6.5430383446        2.8547942555        7.5741839406
  H         6.2176174051        3.5116931268        9.2591607662
  C         8.8976769799        2.7154515130        9.2654042196
  H         7.8187976265        1.0303166440        8.2598131366
  H         7.2964841246        1.1627718184        9.9057464971
  C         8.5270201292        3.9823593800       10.0367142942
  C         9.2945285291        3.4629299333        8.0529361895
  C         9.8697553843        1.9911478820       10.1273411523
  C         8.7518049206        5.1046465834        9.2787849178
  C         8.1052570557        4.3024676100       11.3302373344
  C         9.2843743207        4.7947148151        7.9966993369
  C         9.8200922952        2.8895298742        6.8931746816
  H         9.3802966196        1.6028184413       11.0177778418
  H        10.1659457200        1.0367779305        9.6160462379
  C        11.1032080588        2.8334888157       10.3543542001
  S         8.4319774869        6.5908602740       10.1231360297
  C         7.9527507603        5.6598364382       11.5141815770
  H         7.8372211498        3.5493749324       12.0622605199
  C         9.7128448399        5.4594531161        6.8696516163
  H         9.8932994424        1.8484262073        6.8913456287
  C        10.2066799807        3.5607729513        5.7523824822
  H        10.9829039102        3.8537568509       10.7535063987
  H        11.6939541212        2.8697856656        9.4632258840
  C        12.1172198966        1.9984541831       11.1743270400
  C         7.4771977631        6.2714093955       12.7666628104
  C        10.1978389225        4.9230910346        5.6653669256
  H         9.5567077089        6.5395020422        6.8362908663
  C        10.6682598966        3.1628148288        4.5265665698
  H        13.1454654961        2.3002642993       11.0535294158
  H        12.0898391142        0.9742574404       10.6703246196
  C        11.9335412961        1.9905590731       12.6861030859
  C         7.5187218518        7.6477707495       13.1097949093
  C         6.9117479193        5.4462208379       13.8884441680
  C        10.7093131592        5.5934265966        4.4252335798
  C        10.9910855882        4.2476581453        3.7390670935
  S        10.9197408101        1.6324230041        3.7778221512
  H        11.4816167410        2.9263131755       12.8731710293
  H        11.2085655551        1.3191259679       13.0042191260
  C        13.2368106651        1.8006800784       13.4701372786
  N         7.8170551714        8.6203211487       12.1875482370
  C         7.2764396220        8.1815207637       14.3775366679
  C         6.6868127382        5.9616048985       15.1549249261
  H         6.6117049832        4.3973222903       13.7710383970
  C        12.0259638692        6.4423415795        4.6655512833
  C         9.5987830730        6.2418342053        3.6463135479
  C        11.4721695829        3.7995386350        2.4981014208
  C        11.5448494330        2.4092094224        2.4012492419
  H        13.6335881074        2.7490953886       13.7886591463
  H        13.9884892252        1.1368574816       12.9261679440
  C        12.8826135658        1.1276598125       14.8636963830
  S         7.8374256285       10.0625179612       12.9032056615
  N         7.4926709068        9.5131995382       14.4221291412
  C         6.9254785210        7.3869690017       15.5112006032
  H         6.3963083452        5.2838636729       15.9111162941
  H        11.7383213412        7.2486882855        5.3455454626
  H        12.3732398672        6.8320572868        3.7253690693
  C        13.2217083362        5.6531553924        5.2877867635
  H         9.1467946073        7.0366213103        4.2359135032
  H         9.9595358808        6.6383581650        2.7049061104
  C         8.4584967910        5.3472379270        3.2100780513
  H        11.5712940194        4.4976826391        1.7009927128
  C        11.7927656970        1.5851258068        1.1395531453
  H        12.2217596369        0.2885422295       14.7899408284
  H        13.7798770460        0.4634335357       15.1260218814
  C        12.5259781432        2.0163005160       16.0704404014
  C         6.7101272596        8.0353924964       16.8157991981
  H        12.9606946497        5.0914411132        6.1810431530
  H        13.4596603216        4.8173968166        4.5596060114
  C        14.4445902369        6.5036367965        5.6102000347
  H         7.8239661910        4.9679145058        3.9958700112
  H         8.7288214095        4.5097536456        2.6613022451
  C         7.4256174616        6.0255866704        2.2780215119
  C        11.7691922178        0.1705696524        1.0539257871
  C        11.8398629937        2.3564223417       -0.0914100268
  H        11.6348855154        1.7270240955       16.6109396677
  H        12.2295071741        2.9863152094       15.7058770825
  C        13.6611899444        2.2754062543       17.0111421438
  H         7.1486585041        9.0798319121       16.9140076265
  C         6.2777608121        7.6191271473       18.0313476869
  H        14.2641015750        7.2198399511        6.4319878620
  H        14.6116266191        7.0581005820        4.6857349147
  C        15.7012244616        5.5948484027        5.8117217630
  H         8.0381491494        6.6321050785        1.5656795113
  H         6.8796104558        5.1903643102        1.7754685840
  C         6.5277463003        6.9965182999        3.0493015956
  N        11.5762314956       -0.7903032019        2.0866063552
  C        11.9939792693       -0.4272304808       -0.1879705849
  C        12.0142465846        1.7276089827       -1.3596185252
  H        11.7895199303        3.4326858573       -0.0830907895
  H        13.4167924739        3.0806383297       17.7879767545
  H        14.4559674165        2.6087385289       16.5169272682
  H        13.9311253556        1.4226159203       17.5438254942
  S         5.7658460731        6.0210286700       18.5518368405
  C         6.1309998293        8.6680827136       19.0624945508
  H        15.3303470679        4.7115744510        6.3093724917
  H        16.0908966658        5.2275793639        4.8629065828
  C        16.8564718263        6.2894914989        6.5428011462
  H         7.2051504363        7.4314961760        3.7410292122
  H         5.7850117518        6.2956518594        3.5192562727
  C         5.9881005465        8.0392941880        2.1584169838
  S        11.6006383489       -2.2776745701        1.4706090399
  N        11.9703148586       -1.8183217140       -0.0561297580
  C        12.2178946693        0.2633751694       -1.3683886265
  H        12.0460747207        2.3322080141       -2.2332796703
  C         5.7118703991        6.7555272645       20.1570425139
  N         5.7502668590        8.0874810581       20.2092779343
  O         6.6138673799        9.8111580372       18.9899811248
  H        17.4056839025        6.9379785825        5.8868682549
  H        16.4526401826        6.8810657529        7.3108111026
  C        17.8131417654        5.2487005527        7.0957084515
  H         6.7170153766        8.7911825106        1.8396010239
  H         5.7656935807        7.5112571408        1.2364247158
  C         4.8092192805        8.7677413197        2.7161643931
  C        12.6978143840       -0.4753717509       -2.4931541643
  S         5.2908825653        5.9197928321       21.6507010634
  C         5.8061824939        8.8081502173       21.5226250574
  H        17.3437435067        4.8268473065        7.9279878746
  H        18.0521058077        4.5353434324        6.3361321777
  C        19.1085331187        5.7478267270        7.7089425424
  H         5.0073311903        9.0425335504        3.7705081949
  H         4.0401948947        7.9605553018        2.8355733974
  C         4.1682946921        9.9125326455        1.8833787361
  H        12.5496254177       -1.5212547493       -2.4363447666
  C        13.2008099541       -0.0777882664       -3.6807759505
  H         5.0898012116        8.4861149602       22.2722384255
  H         5.3954708303        9.7782565266       21.2288659368
  C         7.2353178867        8.8233516825       22.0169335947
  H        19.3405010537        5.0969235410        8.5463723565
  H        18.8094136158        6.7295990363        8.0928236584
  C        20.3599588979        5.8921757633        6.7768961329
  H         3.1946296516       10.2659728115        2.3460205972
  H         4.9092615426       10.7510620340        1.9599557541
  C         3.9308056579        9.5469094940        0.4517272422
  S        13.5778576412        1.4708043837       -4.1108779511
  C        13.5068567574       -1.2243336432       -4.6157455847
  H         7.3847852351        8.2137631249       22.9020710168
  H         7.6950247760        9.7983001433       22.3104509919
  H         7.7994607251        8.3720003979       21.2458454501
  H        20.1825538231        6.5965533932        5.8886213091
  H        21.2413480702        6.2436953426        7.1862694014
  H        20.5926437087        4.8841809166        6.3889090910
  H         4.1271833940       10.4966901317       -0.1237270386
  H         4.4516279355        8.7272902041        0.0336173441
  H         2.8609927591        9.3583177395        0.2889960977
  C        13.9245825932        0.6655927291       -5.6774924207
  N        13.8993511870       -0.6781988496       -5.7944501162
  O        13.2846875109       -2.3942296992       -4.3784002737
  S        14.6310837875        1.5225436834       -7.0372445337
  C        14.1136012235       -1.4484888751       -7.0556391110
  H        13.9852294251       -2.5234073798       -6.9071008640
  H        15.0703102915       -1.3584490570       -7.5285017320
  C        12.8564619827       -1.2121592383       -7.9777672805
  H        12.7334607554       -1.9805206899       -8.6661399207
  H        13.0223062044       -0.2836217055       -8.5008898156
  H        11.9221090236       -1.1091278404       -7.4735646360
  H        -3.5928208419       14.4254664941       16.4651980460
  C        -3.0157860321       13.5512559792       16.6366314059
  H        -3.7269215803       12.8399125204       17.1508649402
  C        -1.8459113331       13.6407441994       17.6249252159
  C        -2.5242834998       12.9763798984       15.2654034539
  C        -2.2718543846       13.9490456617       19.0588484760
  H        -1.3071102450       12.7061176986       17.5226386106
  H        -1.1425686839       14.3965722832       17.2482160219
  H        -2.3541916343       11.8724760540       15.3326112965
  H        -3.1780335968       13.2533605413       14.4759253397
  H        -1.5447486572       13.4855612381       14.9898043996
  C        -2.5473085285       12.6890437482       19.8665881905
  H        -3.1582350362       14.6015960200       18.9022673416
  H        -1.5132036087       14.4874674182       19.5212863959
  C        -2.9586891056       12.9762359092       21.3152334852
  H        -3.3883375673       12.1630151752       19.3889045383
  H        -1.6525190725       12.0866883760       19.6801468131
  C        -1.7865381093       12.5828986282       22.3139379731
  H        -3.7464340083       12.2993431308       21.5769331067
  H        -3.1939575299       14.0261041695       21.4219023170
  C        -0.4873236147       13.5938364610       22.2931322716
  H        -2.1663616982       12.4779274918       23.3485697005
  H        -1.5077968790       11.5970511855       21.9971634971
  C         0.7880191951       12.9965427552       23.0451280171
  H        -0.1748663806       13.6628782106       21.2376824153
  H        -0.7532545199       14.5220116210       22.7498986506
  C         1.1707884887       11.6396043206       22.4292731215
  C         0.3905694441       12.3443629473       24.3383158518
  C         1.9673050884       13.9907488293       23.2565227024
  C         0.9969158637       10.5395807495       23.2089578978
  C         1.8052976895       11.2377620688       21.1766237845
  C         0.5155969953       10.9776839365       24.4691259186
  C        -0.0257104737       12.9601432331       25.4909702354
  H         2.2146346759       14.4605343658       22.2731434672
  H         1.6800515297       14.7359904795       23.9493959181
  C         3.2537458333       13.2765969599       23.7695843792
  S         1.1366869010        9.0359585240       22.5356945685
  C         1.7619976641        9.8672734262       21.1416586974
  H         1.9077886157       12.0427437529       20.4828561301
  C         0.0638800943       10.3685051176       25.6084800304
  H        -0.0398553215       14.0148708642       25.3324023842
  C        -0.3345792316       12.3453102125       26.6262218767
  H         3.6234797113       12.4036031293       23.2146139279
  H         2.9800362786       13.0173525824       24.7958085727
  C         4.4613879386       14.1878103376       23.9526071429
  C         2.3331425098        9.0783304043       19.9934695675
  C        -0.3346455058       11.0216333082       26.7638715167
  H         0.0953766941        9.3515660419       25.6284193055
  C        -0.6993186871       12.8008415460       27.9111162941
  H         5.1635700143       13.8185037560       24.7091238137
  H         4.0815350371       15.2165797144       24.2305124211
  C         5.2536698768       14.2684296800       22.6105086540
  C         2.2013966716        7.6544309957       19.7835693570
  C         2.9487776707        9.8657446813       18.8729182239
  C        -0.7629096853       10.2821205772       28.0568543427
  C        -0.9281815504       11.6871979831       28.7413409204
  S        -0.9872409927       14.2987444954       28.6344856906
  H         5.9479024494       15.1226040156       22.5615860241
  H         4.4656395321       14.3755964266       21.8775047929
  C         6.0862552282       13.0317951413       22.3635176089
  N         1.8221520508        6.7379624212       20.7537493853
  C         2.4641383040        7.0731653409       18.5282447165
  C         3.2509508138        9.2440676838       17.6663140727
  H         3.1446572921       10.8926883533       19.0074081250
  C         0.3943594777        9.4573665590       28.6767333272
  C        -2.0860694637        9.4632915675       27.9123076579
  C        -1.3959420598       12.1369293933       30.0550544000
  C        -1.4227311696       13.5304171363       30.1174214670
  H         7.2088547872       13.2543281603       22.5739289094
  H         5.7928090254       12.1569245753       22.9509404702
  C         6.1139832741       12.6916025072       20.9126722857
  S         1.7008851826        5.2420755997       20.0589407518
  N         2.1638058649        5.6927210130       18.5382341062
  C         2.9176461918        7.8444719860       17.4322875824
  H         3.4449724990        9.8772082513       16.8781618439
  H         0.8052949648        8.9919630158       27.7619477767
  H        -0.0445025243        8.6942827430       29.3373019160
  C         1.3444778499       10.2611598090       29.4623708781
  H        -1.8711188907        8.6496935380       27.1720600106
  H        -2.3557679358        8.9882089224       28.9033771047
  C        -3.1891555061       10.3537645537       27.3273264186
  H        -1.8047663036       11.3766885824       30.7467713621
  C        -1.7298763022       14.2161996565       31.4029536440
  H         5.0955274993       12.3145589228       20.6025001186
  H         6.8433838759       11.8762734588       20.9068033603
  C         6.6968065687       13.8532048497       20.0784719635
  C         3.1919454582        7.1746997851       16.1909430798
  H         1.6901157513       11.1179082457       28.8673449769
  H         0.9997004167       10.6406326881       30.4315370827
  C         2.4514913347        9.2576825937       29.9638871019
  H        -2.9924556887       10.5845736009       26.2765401151
  H        -3.2751076747       11.3219146613       27.8306583571
  C        -4.5539458087        9.6291135149       27.4958159731
  C        -1.7150029070       15.5939662313       31.5723220989
  C        -2.0496836232       13.4198070646       32.6372227394
  H         5.9616803429       14.5511709792       19.7858107748
  H         7.5216582668       14.4695027904       20.4846467364
  C         7.3048162563       13.4538294994       18.6456867502
  H         2.9720839333        6.1204425564       16.1866178414
  C         3.5078909832        7.6016934265       14.9323888559
  H         2.8152180082        8.5003839901       29.2186151402
  H         2.0149060433        8.6330911592       30.7400051326
  C         3.6706159297        9.9986438975       30.5758077782
  H        -4.6699978454        8.6874840049       27.0393545188
  H        -4.7379451066        9.3402669549       28.4796263424
  C        -5.7220413024       10.4917789578       26.8442900347
  N        -1.5199282957       16.4973796606       30.5506771727
  C        -1.9842319079       16.2012198016       32.8095527867
  C        -2.3576403621       14.0056278638       33.8558258815
  H        -2.0036061504       12.3357904656       32.6432127363
  H         8.0967950644       14.1299156247       18.2499416797
  H         7.6485228948       12.4137089911       18.5997949041
  H         6.4524229789       13.5103017193       17.8975517606
  S         3.9098627020        9.1785215594       14.4415922619
  C         3.4920734153        6.6337206465       13.8045023702
  H         3.9502175658       10.9999829927       30.1695590802
  H         3.5508598555       10.1689358196       31.6817428175
  C         5.0248465754        9.1970310362       30.5759971968
  H        -5.2771721096       11.3440772985       26.3304056159
  H        -6.1970159480       10.9440499877       27.6991425183
  C        -6.6652995270        9.7576017044       25.9363092440
  S        -1.6420855440       18.0492232805       31.1319204275
  N        -1.8861850497       17.6310243464       32.7317802677
  C        -2.3742938860       15.5029161689       33.9625503930
  H        -2.5919161509       13.3273680697       34.7074776344
  C         4.2018968698        8.5539287662       12.7956295912
  N         3.9805141424        7.2274806323       12.6566634124
  O         3.2359661537        5.4067376737       13.8921838819
  H         5.9004201369        9.8145659585       30.8072316291
  H         5.1841427334        8.8840722300       29.5981823756
  C         4.9404256031        7.9548134596       31.4943992217
  H        -5.9876143658        9.2967597772       25.2095855598
  H        -7.0793748258        8.8078918973       26.4338619603
  C        -7.8140302251       10.6444743596       25.3163895653
  C        -2.6106825356       16.2198695503       35.1667963751
  S         4.4926129659        9.6334892525       11.5152631300
  C         4.0316813095        6.4163196257       11.4615449378
  H         5.5039917623        8.0973097573       32.3765549131
  H         3.9926839302        7.7741231309       31.8442050231
  C         5.3594063135        6.6318882564       30.8367181000
  H        -7.3744368071       10.9988982624       24.3575150465
  H        -7.9653155938       11.5624334473       25.9401831714
  C        -9.1691110354        9.8191118096       25.1374820891
  H        -2.4071099054       17.2506121018       35.1593738587
  C        -3.1556825225       15.8529242255       36.4234528677
  H         4.8810500058        6.6855235692       10.8104199171
  H         4.1733515224        5.3285215881       11.6412417450
  C         2.8200696760        6.5990383983       10.5403506190
  H         4.7568260148        6.5843869927       29.8909846275
  H         5.0646681965        5.7770915497       31.4274876313
  C         6.8439940269        6.5983325473       30.5958796108
  H        -9.8949467910       10.4055323400       24.5110573740
  H        -8.9876649704        8.8385373540       24.7427052427
  C        -9.7632995869        9.5148587992       26.4919259300
  S        -3.7579362599       14.2768687504       36.7197818888
  C        -3.3922569980       16.8753589275       37.4364573708
  H         2.7932028195        7.5970118485       10.0202285918
  H         2.9551494204        5.8576407391        9.8069638915
  H         1.8295828739        6.3751877479       10.9708355260
  H         7.3151897073        7.0449850820       31.4684729947
  H         6.9527296053        7.2308504689       29.6982736794
  H         7.0754544546        5.6054553210       30.4452733432
  H        -9.4673962882       10.3367814079       27.1726170922
  H        -9.3234789683        8.5007548917       26.7787527490
  H       -10.7640236360        9.3462615836       26.5016731661
  C        -4.1533735675       14.9232795886       38.3433498723
  N        -3.9400143305       16.2630735785       38.4881183697
  O        -3.0449909197       18.0554773984       37.4338875976
  S        -4.8883969303       14.0160502579       39.6994595046
  C        -4.0053097150       16.9898944609       39.7285633013
  H        -4.2734268906       18.0542526023       39.6039914214
  H        -4.6575600147       16.5595491727       40.4750678659
  C        -2.5345368472       16.7887949888       40.3631827890
  H        -1.6675020139       16.7427624896       39.6647428633
  H        -2.4912438094       17.6718237799       40.9972095934
  H        -2.4153628263       15.9971225367       41.0354841799
