352
i=
  H         4.3784711266        1.1776210922       12.3331151733
  C         3.7513421615        2.0431443495       12.4879213987
  H         4.3517520326        2.9620618631       12.5689085604
  C         2.7297139549        2.1791129278       11.3467720464
  C         3.0445003554        1.7445871470       13.8625759831
  C         3.2936022571        2.5180859451        9.9820551300
  H         1.9403122858        2.9158749403       11.4964707789
  H         2.1581118526        1.2517228962       11.3370685652
  H         2.3551435336        0.8639025847       13.8739738248
  H         2.4418887080        2.5668413136       14.0349668565
  H         3.7319477875        1.6686969209       14.6979424643
  C         4.1467911093        1.3044387806        9.5064794631
  H         2.4890236995        2.8584842781        9.3228213783
  H         3.9013048862        3.3717819070        9.9762149064
  C         4.7726345429        1.5976928822        8.1625351309
  H         3.4864201536        0.4284187163        9.3555417466
  H         4.8988028474        0.9729623341       10.2210928442
  C         5.9783600709        2.5107251211        8.2831459816
  H         4.0617669005        2.2439202868        7.6124232238
  H         4.8677656123        0.6859758342        7.6071984151
  C         7.2823161423        1.8131320225        8.6192671668
  H         6.0310036017        2.9699878399        7.2316332087
  H         5.7087727116        3.3088925402        8.9458170513
  C         8.5824527179        2.6000532047        8.9058433557
  H         7.5392678545        1.0412483060        7.8302135985
  H         7.1881760403        1.2262052880        9.5015389242
  C         8.2102301370        3.9341773140        9.6245691242
  C         9.0713167434        3.3615080069        7.6990919512
  C         9.7793942893        1.7509662170        9.5229524411
  C         8.4782406036        5.0231328763        8.8638516963
  C         7.7319470433        4.2905144867       10.8789893933
  C         9.0258622050        4.7286631232        7.6283470916
  C         9.5239280454        2.7306051378        6.5331327421
  H         9.4658520706        0.9792880102       10.2329185664
  H        10.1751697613        1.1433219600        8.7786869819
  C        10.9440089352        2.6951366485        9.9881465261
  S         8.2384447984        6.4829177263        9.7134351883
  C         7.7360380331        5.6218597743       11.0891118405
  H         7.6890074089        3.4912112907       11.6297273397
  C         9.5125605053        5.4471488982        6.5395410414
  H         9.5548607986        1.6368195940        6.5516645532
  C         9.9601974805        3.4496102236        5.4347231771
  H        10.6415896055        3.6928230175       10.3107039386
  H        11.5664637444        2.9289809635        9.1388455432
  C        11.8432082763        2.0649662475       11.0891213248
  C         7.3465419558        6.3612408460       12.3546489865
  C         9.9989791355        4.7802871040        5.3893308783
  H         9.4431676300        6.5225212122        6.4826572336
  C        10.5088418887        3.0528419571        4.2345923489
  H        12.7295106115        2.6931358930       11.2906691229
  H        12.4166718643        1.1927752811       10.8204087505
  C        11.1757641420        1.9193995790       12.4446835255
  C         7.3803627917        7.7425343382       12.6659193367
  C         7.0092637756        5.5386271309       13.5996777127
  C        10.5092723571        5.5238549931        4.1913821196
  C        10.8013232828        4.2061529999        3.4415555307
  S        10.9379159109        1.5771233529        3.4202677211
  H        10.5331021868        2.8170514510       12.7822430125
  H        10.4477369462        1.1712082198       12.3494776565
  C        12.0905612144        1.5641809238       13.5353960775
  N         7.7180049706        8.6919562749       11.6900748121
  C         7.1572820759        8.2848574458       13.9215926057
  C         6.8780356159        6.1095080798       14.8502385917
  H         6.9072213788        4.4706406804       13.6144593711
  C        11.8185062671        6.2946667759        4.4493039055
  C         9.4516165340        6.3283756181        3.4714404019
  C        11.3907896951        3.8589428696        2.1658865572
  C        11.4516658153        2.4660850804        2.0583391943
  H        12.9843709070        2.1110304285       13.2510424712
  H        12.3932064671        0.5387534870       13.6610303250
  C        11.6091199402        2.1457632834       14.8492728118
  S         7.7518410087       10.1549714937       12.3904780256
  N         7.3924218929        9.6825423545       13.9474218709
  C         6.9238874442        7.5570529355       15.1309918954
  H         6.6919726293        5.4123446641       15.6148484449
  H        11.6897249367        7.0686847546        5.2163692301
  H        12.0645728880        6.8357208148        3.4992474265
  C        12.8726558912        5.3713297495        5.0264900022
  H         9.1160734243        7.0657739008        4.1990445828
  H         9.9810489990        6.8889264375        2.6889902492
  C         8.2209585627        5.5463609551        2.7745364336
  H        11.7443694234        4.6546491689        1.5491795064
  C        11.7701855883        1.7419691729        0.8197519951
  H        11.3328101938        3.1577322536       14.6894629397
  H        10.7468982141        1.6108204707       15.1761826172
  C        12.6884180462        1.9942865523       15.8574467659
  C         6.6534606999        8.1999692560       16.3502125935
  H        12.5842431898        4.7359780535        5.8006271011
  H        13.4002713498        4.8577292004        4.1806710827
  C        13.9765077309        6.2009528819        5.6220228637
  H         7.6864001435        4.8915639216        3.4926540126
  H         8.6547954925        4.9589043144        1.9964213884
  C         7.2896727052        6.5462066142        2.0768541140
  C        11.7948152872        0.3293512192        0.5790001236
  C        12.0500769879        2.5556175736       -0.3734460432
  H        13.4820290298        2.7139532613       15.8175544315
  H        13.0714168100        0.9707589207       15.7577830775
  C        12.1387821136        1.9851478278       17.2427790939
  H         6.7893603820        9.2686005369       16.3624969956
  C         6.3031493807        7.6648740763       17.5914775082
  H        13.5748815008        6.9385762571        6.3554103184
  H        14.3425168771        6.7884773226        4.7575503203
  C        15.0672711384        5.2567145045        6.1436004109
  H         7.1622491643        7.4725382626        2.6699021589
  H         7.8292806805        6.9660252942        1.2120422975
  C         5.9832531574        5.9474969281        1.5260023641
  N        11.5212641495       -0.6514170007        1.5895509916
  C        12.0725140470       -0.2224535306       -0.6485898316
  C        12.2500029603        2.0021143931       -1.6239769310
  H        12.0640971103        3.5549393954       -0.3329038733
  H        12.0058415193        3.0219964338       17.5490037977
  H        12.8824323496        1.5683875764       17.9052128381
  H        11.2224015724        1.4710444948       17.2312028014
  S         6.0038697305        6.0983257102       17.9686581862
  C         6.1854668831        8.6230419771       18.7048707428
  H        14.7108879676        4.5889795180        6.8944599074
  H        15.2316425332        4.6588540377        5.1805384354
  C        16.3053087343        5.9215276649        6.6404233005
  H         5.4667492813        5.4228515506        2.2815288645
  H         6.0796212744        5.1451231746        0.8818161540
  C         5.0491013269        7.0629874363        0.9130460361
  S        11.3492496116       -2.1090224943        0.8681212730
  N        12.0756470038       -1.6594295409       -0.5301385174
  C        12.3250067584        0.5416987980       -1.7959385925
  H        12.5306954806        2.5990406960       -2.4877863015
  C         5.6740119792        6.6619832163       19.5980416557
  N         5.8338120717        7.9750757660       19.8664164886
  O         6.3279190001        9.8172982188       18.4997594523
  H        16.5929137690        6.5212095029        5.7968570177
  H        16.1347250443        6.6263282147        7.4963374942
  C        17.4546940314        4.9457927031        6.9412476314
  H         5.6236113473        7.6883551732        0.2588376017
  H         4.3386065117        6.6719319235        0.1817684465
  C         4.4995539930        7.8987365937        2.0671739390
  C        12.6961213637       -0.1550903146       -3.0127985822
  S         5.3752122897        5.5416586668       20.9596839581
  C         5.7061585450        8.5920924155       21.1630753276
  H        17.2341490222        4.4618677545        7.8688292242
  H        17.3545409399        4.0896085142        6.2828200867
  C        18.8827899563        5.5403245510        7.0039146458
  H         4.9115336607        7.7146612046        3.0466827231
  H         3.4561232527        7.5485831934        2.1841307832
  C         4.2817153549        9.3809128199        1.8321614314
  H        12.5104754171       -1.2241025796       -3.0184102708
  C        13.3298010451        0.2526138725       -4.1693091039
  H         4.7879744027        8.2309055342       21.7141029295
  H         5.4665834754        9.6436619772       21.0145171283
  C         6.9897741308        8.6575320576       21.9522691856
  H        19.3525515388        5.0130719878        7.8818546075
  H        18.8638757319        6.5637517056        7.3790249829
  C        19.7313371167        5.2821291804        5.7812095139
  H         4.0536090592        9.9410076813        2.7927309561
  H         5.3065763049        9.7486403307        1.6038442646
  C         3.3034478153        9.6761801773        0.7433348237
  S        13.9291968600        1.8013605440       -4.5728623389
  C        13.4642016650       -0.8251711744       -5.1861142770
  H         7.2515849084        7.7304352624       22.3031722807
  H         7.0717064828        9.4493913964       22.7875880220
  H         7.7877453166        8.7428842056       21.2323998191
  H        20.8228485399        5.0622350262        6.0700928665
  H        19.3365699422        4.4616555933        5.2135585646
  H        19.6583857587        6.2190820391        5.1338780430
  H         2.5867904623       10.4889930847        1.0269585036
  H         3.7855474689       10.0437896338       -0.1603323449
  H         2.7541850364        8.7703718997        0.4688011082
  C        14.2645566197        0.9918392612       -6.1166317839
  N        14.0945571222       -0.3153046685       -6.1725881533
  O        13.1303218997       -1.9844961036       -5.0721251804
  S        14.7749447663        1.8465474402       -7.6139769152
  C        14.1062099254       -1.0973294975       -7.4131645528
  H        14.3116182097       -2.1713724798       -7.2156397672
  H        14.8792260817       -0.8704943255       -8.1629388369
  C        12.7575971661       -1.0580975360       -8.0842302522
  H        12.3690866716       -0.0333804779       -7.9796946961
  H        12.0030100011       -1.6968698373       -7.5528055268
  H        12.8058395404       -1.1646990529       -9.1729898596
  H        -3.5133771235       15.1765595150       16.1222980304
  C        -3.3910036275       14.0626812577       16.2376892249
  H        -4.3123950939       13.5118027327       16.3922854534
  C        -2.4666858871       13.9460563471       17.4494611850
  C        -2.6641026926       13.5467752099       14.9666800965
  C        -3.2007994258       13.6557595435       18.7739202935
  H        -1.5756414168       13.2692580413       17.4344850213
  H        -1.9967347156       14.9457636492       17.4997702212
  H        -2.8444018089       14.2831727151       14.1848854152
  H        -1.5759312806       13.5161045519       15.0644011791
  H        -3.0666566715       12.5552553997       14.6920473462
  C        -2.1754327463       13.2269619504       19.8727660212
  H        -4.0222676925       12.9869819207       18.6065692464
  H        -3.7522180502       14.5691370505       19.1867029575
  C        -2.8024240876       13.3117177211       21.3052089881
  H        -1.8848504928       12.2277317790       19.7356880208
  H        -1.2634329054       13.8807414965       19.7072353162
  C        -1.8113903692       12.6827300384       22.3432877745
  H        -3.8181672002       12.8023323058       21.3446069520
  H        -2.8979680376       14.3130309768       21.6225143800
  C        -0.4396917867       13.4412648899       22.4940560086
  H        -2.2600933024       12.5691124462       23.3677050819
  H        -1.4445189289       11.6815376106       22.0408517910
  C         0.7543140223       12.6875699375       23.0924639247
  H        -0.1169079947       13.9233414819       21.6075387905
  H        -0.5983252388       14.3461104786       23.1224920355
  C         1.1233895106       11.3162468947       22.4806031102
  C         0.4370262580       12.0268762508       24.4072419763
  C         2.0263366336       13.5718461147       23.2580594142
  C         1.0203369713       10.2583235129       23.3811196181
  C         1.6365256954       10.9388023814       21.2242785732
  C         0.6125290475       10.7051991398       24.6314898163
  C        -0.0050894293       12.6277183582       25.6126085691
  H         2.1830270684       13.9625000170       22.2946307383
  H         1.8951279079       14.3876771422       23.8731783402
  C         3.3151421668       12.9421705707       23.7232520793
  S         1.3757825890        8.6981366220       22.7438391630
  C         1.7677313925        9.5524338061       21.1759607317
  H         1.7184549216       11.7385915322       20.4816451051
  C         0.3199605360       10.1169950336       25.8293671858
  H        -0.0852193780       13.6350946358       25.5802192033
  C        -0.3405030478       11.9946209924       26.7791338665
  H         3.7214647508       12.1980751731       23.0183502192
  H         3.2090309114       12.2826421270       24.6238793523
  C         4.4788585091       13.9230189469       24.1268517410
  C         2.2147752769        8.8379114981       19.9621492221
  C        -0.1206825825       10.7023584382       26.9947357188
  H         0.5999492774        9.0672555982       25.8282194633
  C        -0.7490063612       12.4979450862       27.9864208039
  H         5.1830563432       13.2578762048       24.6713159915
  H         4.1451548326       14.7012186213       24.8614926092
  C         5.1885306005       14.4461940781       22.8323787877
  C         2.2670050882        7.3971436999       19.8075887750
  C         2.7061354102        9.6338482475       18.8088215234
  C        -0.6139444273       10.0492478687       28.2637491302
  C        -0.8517275488       11.4385943724       28.9344847345
  S        -1.1019168512       14.0420795451       28.6206034719
  H         5.2279365722       15.4876633846       22.5861315599
  H         4.6116201643       14.0221964436       22.0314321218
  C         6.5549565441       13.7530149683       22.7430607048
  N         1.9779108708        6.5084591865       20.8070176720
  C         2.5053214024        6.8293887184       18.5283701464
  C         2.9500007584        9.0317413383       17.6125621739
  H         2.9207317465       10.6579061031       18.8630534864
  C         0.4547277811        9.2498993406       29.0590524122
  C        -1.9588105485        9.3699833328       28.2044180650
  C        -1.2001706193       11.9281021303       30.1941475795
  C        -1.3108127050       13.2768579001       30.1114211190
  H         7.1964551577       14.4611538140       22.3101206495
  H         6.9630791081       13.5419726636       23.7518658133
  C         6.5325790356       12.5229161628       21.9374269564
  S         1.9548498599        5.0690754166       20.0785650287
  N         2.3914809583        5.4151450582       18.5679810489
  C         2.8682347814        7.5856932601       17.4170326939
  H         3.2456678186        9.6019850659       16.7170126920
  H         0.7672388591        8.3332709343       28.5362574640
  H         0.0037555564        8.8802283746       30.0186240392
  C         1.8161390263        9.8982253569       29.3350697195
  H        -1.8080434014        8.3800257187       27.8260842834
  H        -2.2779908444        9.2869994280       29.2370981986
  C        -3.0154155418       10.1993623903       27.3852744203
  H        -1.3894249467       11.2018532114       31.0152993086
  C        -1.5177376341       14.0958747407       31.3403458133
  H         5.8103037135       11.8189262408       22.3365197868
  H         7.5342041087       11.9898405557       22.1068245904
  C         6.3487767233       12.7833420763       20.4393113557
  C         3.0298458445        6.9549709655       16.1466169184
  H         2.2079728633       10.2244271928       28.3735293020
  H         1.4810025440       10.7073493439       29.9433983404
  C         2.7205950512        8.9452271893       30.0468414537
  H        -2.7463913336       10.4880311843       26.3801813952
  H        -3.2829917025       11.1447652511       27.8332163560
  C        -4.3720380288        9.4303763881       27.2753757526
  C        -1.5681975648       15.4959525286       31.4261081367
  C        -1.7226400403       13.3724759152       32.6013170576
  H         5.5392149824       12.0743347021       20.1821603187
  H         6.0147098598       13.7925270293       20.1273696755
  C         7.5853427488       12.5491903518       19.4349200615
  H         2.5846437740        5.9604628107       16.2065340744
  C         3.3033922791        7.3598640904       14.8911863663
  H         3.0505737060        8.1436962174       29.4052993802
  H         2.1746774644        8.6457869265       30.9786646695
  C         4.0003712033        9.6110454947       30.4637327711
  H        -4.1987932719        8.6725096365       26.4990427703
  H        -4.5847531845        8.8861405949       28.1337497214
  C        -5.5743228661       10.3159837818       26.8610441014
  N        -1.1241636837       16.4067477762       30.4328172293
  C        -1.9175815306       16.0799384372       32.6393514250
  C        -2.0959820975       13.9310527580       33.7679555567
  H        -1.3998037794       12.3400543497       32.7220813370
  H         7.3188360328       12.1804467664       18.4616083821
  H         8.3016769037       13.4095266662       19.3464175620
  H         8.1894070889       11.7382543284       19.7838473085
  S         3.7179489423        8.9425891238       14.3432476039
  C         3.4191060128        6.3322894845       13.8427085672
  H         4.2420598844       10.3452046317       29.7398189601
  H         3.8538549702       10.1463052743       31.4298209339
  C         5.1684133532        8.6239094628       30.5059638843
  H        -5.2782348028       10.8566515702       26.0032941187
  H        -5.7956688661       11.0523453605       27.6376923967
  C        -6.7197224467        9.4619020127       26.4361004966
  S        -1.2743013674       17.9239536197       31.0540915711
  N        -1.8930127768       17.4611869862       32.4951200054
  C        -2.1733484776       15.4015095382       33.8245126452
  H        -2.0945582775       13.3846522248       34.6437711436
  C         3.9335295941        8.1903382194       12.7670028638
  N         3.8178398227        6.8523376039       12.7045619949
  O         3.3325241849        5.0977641337       14.0494961783
  H         6.1053191252        9.2625321448       30.6149579376
  H         5.2000604531        8.1458985738       29.5082897889
  C         4.9844459883        7.5884552504       31.6834829683
  H        -6.2368997287        8.7349742276       25.8314309951
  H        -7.3128094251        8.9526393773       27.1995706073
  C        -7.6381126336       10.4349940665       25.6804601803
  C        -2.4437877930       16.2180549855       34.9956526246
  S         4.2833143396        9.0163869497       11.1985760754
  C         3.8760063230        6.0470439107       11.4642879189
  H         5.7415931179        7.7326594526       32.4312938611
  H         3.9928587326        7.7002605905       32.1477541149
  C         5.1071526019        6.1274818006       31.1014832786
  H        -6.9921417973       10.8259894830       24.9520741305
  H        -8.0042651094       11.2754449513       26.2664885125
  C        -8.8858631576        9.7766466979       25.0048978261
  H        -2.2012401958       17.2659371170       34.8310349340
  C        -2.9406111238       15.9494071332       36.2759630234
  H         4.6837924454        6.5555240756       10.8872644087
  H         4.2400154185        5.0376547485       11.6098998637
  C         2.4945625153        5.9721792047       10.7148574826
  H         4.4832276652        5.9696787160       30.1284538645
  H         4.5294927370        5.5222173916       31.8837775258
  C         6.5195812936        5.6387010333       31.0275853673
  H        -9.2367011479       10.4394098722       24.1683845830
  H        -8.8008345850        8.8068145312       24.6367831509
  C       -10.1130224598        9.7664809163       25.9353732049
  S        -3.4554543396       14.4095407801       36.8730966729
  C        -3.1089886883       17.0895341686       37.2542577321
  H         1.8061449646        5.7518819555       11.5051786680
  H         2.1936238978        7.0217189031       10.4333863686
  H         2.4693478665        5.4110154171        9.7767383494
  H         7.0559684607        6.0657170289       31.8525746964
  H         7.0932663055        5.7738390650       30.0896143630
  H         6.5945776004        4.5522865782       31.1653428620
  H        -9.8856182342        9.0788504555       26.6914142318
  H       -10.8214861397        9.2483079127       25.3765998323
  H       -10.4592027817       10.6834214820       26.3777086244
  C        -3.8132596980       15.2932434377       38.3896145798
  N        -3.6890491617       16.6455637587       38.3969214129
  O        -2.8311004226       18.2846672297       37.0022408582
  S        -4.5432571326       14.4016507020       39.7031704135
  C        -3.8799831149       17.5069191201       39.6162942459
  H        -4.3617760242       18.4163050951       39.2804367031
  H        -4.6563794578       17.0928685008       40.2808759216
  C        -2.5893102224       17.7841613396       40.3522411978
  H        -2.2279911051       16.8357636812       40.5844430128
  H        -1.8838148693       18.4576835930       39.8578868261
  H        -2.8117279345       18.2897499049       41.3251611542
