352
i=
  H         4.3170041118        1.5241222533       12.7492527504
  C         3.8261861738        2.4273242546       12.7012192102
  H         4.6000601189        3.2907437891       12.8350419280
  C         3.0060580041        2.5781060613       11.4210316224
  C         2.9631752486        2.4811782791       14.0991895331
  C         4.0316306172        2.5730661683       10.2788659784
  H         2.3978803871        3.4581238260       11.4152349051
  H         2.3172406635        1.7567942937       11.2203745710
  H         2.6398724331        1.4312094994       14.5115553102
  H         2.1036503727        3.2050946719       14.0250115451
  H         3.7256636801        2.8016827197       14.8631986795
  C         4.8749290206        1.4082727793        9.9648030068
  H         3.5165120692        2.7011241457        9.2835140483
  H         4.5884111801        3.5801831708       10.3639396153
  C         5.4714742560        1.4671754017        8.5632458223
  H         4.2171706019        0.4992613774       10.0664808920
  H         5.6462799552        1.1946485144       10.6422133448
  C         6.7354673070        2.2873273035        8.6041442239
  H         4.7465224850        1.8792720316        7.8743741982
  H         5.9274650307        0.5082362498        8.1242409834
  C         8.0579879455        1.7411455451        9.1537871299
  H         6.9640775498        2.4416708501        7.6177317844
  H         6.3342546458        3.2547773694        9.1054228706
  C         9.2924402183        2.6663676182        9.2285618041
  H         8.3063604038        0.7747812007        8.6699284239
  H         7.8161773205        1.3956755574       10.1562759576
  C         9.0109039609        4.0228821599        9.9291142843
  C         9.6356284314        3.3961537677        7.9413356064
  C        10.5073095292        1.9314174487        9.8400195802
  C         9.1820449845        5.1564258527        9.1128899610
  C         8.7376426514        4.3690765014       11.2554210984
  C         9.4910033217        4.7425849129        7.8324720994
  C        10.0809254569        2.7522669093        6.8021264268
  H        10.2129286803        1.4857780724       10.7058755303
  H        10.8173515043        1.1352019580        9.1332940202
  C        11.7560539543        2.8705221640       10.1647977494
  S         8.7441103129        6.6904261541        9.7934555580
  C         8.5317836344        5.7395842431       11.3126086636
  H         8.7038713266        3.4762660171       11.8980519005
  C         9.7154874402        5.3133838452        6.5814898608
  H        10.0102400301        1.6759761921        6.8711758016
  C        10.4265461443        3.3014669933        5.5672005531
  H        11.5684340213        3.8866496538       10.5955769272
  H        12.2588146821        2.9025158778        9.2036014886
  C        12.6623697542        2.2386283682       11.2324830406
  C         7.9303208005        6.4679311453       12.4890113112
  C        10.1767724342        4.6210501300        5.3961343686
  H         9.6659182641        6.3745482276        6.5418347671
  C        10.7968805458        2.9401074847        4.3273796431
  H        13.6990429484        2.2953462701       11.0120601358
  H        12.1567494551        1.1862045295       11.3537284191
  C        12.4501154935        2.8219986890       12.6109962027
  C         7.6924852529        7.8939072525       12.6296172665
  C         7.5792397684        5.6616108673       13.7097845022
  C        10.6053839726        5.3502345131        4.1571220938
  C        10.7931604732        4.0044441977        3.4599137577
  S        11.0193260912        1.4286999145        3.4552892558
  H        13.0493088092        3.6943497265       12.5851693109
  H        11.3995120756        3.1359391980       12.6652117899
  C        13.1669882644        1.9976700514       13.6823430858
  N         7.9219989753        8.8618506184       11.6771099507
  C         7.2664006633        8.4728663990       13.8350507169
  C         6.9684771936        6.3033547284       14.7391254406
  H         7.7767964235        4.6138131897       13.6435195850
  C        11.8331584328        6.1642719759        4.2545715487
  C         9.3169698328        6.0008514200        3.6003932384
  C        11.0350297210        3.6654355982        2.1039667505
  C        11.1773371626        2.3098786291        1.9365931490
  H        14.0565623039        2.5833985683       13.9639626532
  H        13.5218852523        1.0431072045       13.3409886330
  C        12.3607582721        1.7173050155       14.9758261585
  S         7.4938948242       10.3479562791       12.1943575516
  N         7.2451496418        9.9189727582       13.7081544320
  C         6.9425846871        7.7575459753       14.9808806937
  H         6.5810434910        5.7123670077       15.5219149305
  H        11.7957642119        6.8972899306        4.9946661459
  H        12.0347053087        6.8101610017        3.3790021363
  C        13.0253087590        5.3620598828        4.8438820251
  H         8.9747166701        6.7752233767        4.2484792204
  H         9.4895830199        6.4582679786        2.6299292837
  C         8.0145314155        5.2198890470        3.5061511066
  H        11.0785329353        4.2736931631        1.2348436133
  C        11.6324550286        1.5860398083        0.7083127222
  H        11.6636633939        2.6271699874       15.1898527200
  H        11.6181646309        0.9985831299       14.8186085102
  C        13.1480186835        1.4678090515       16.2487989717
  C         6.5726487600        8.4799407081       16.1703314565
  H        12.6869374747        5.0030992048        5.8252223898
  H        13.3034812472        4.5010390483        4.2867667586
  C        14.2019491568        6.2243349286        5.1142240209
  H         7.7076344599        4.6544094694        4.3359208506
  H         8.1442984660        4.6265387591        2.6076255476
  C         6.8864960478        6.1636634800        2.9701505806
  C        11.7961820330        0.2076316429        0.5877475720
  C        12.0103409779        2.2996996986       -0.4771230402
  H        14.1488607257        1.7950392909       16.0001231445
  H        13.1245200206        0.4107936851       16.4090947910
  C        12.6045591699        2.1495898829       17.4945948460
  H         6.7341677107        9.5128159425       15.9066163725
  C         6.3335254826        8.0585630434       17.4406139121
  H        14.0205825149        6.8591489417        5.9949058920
  H        14.5802803991        6.6830672156        4.1989163695
  C        15.2464509866        5.0923519626        5.5611219760
  H         6.8529222934        6.9622809578        3.6476164907
  H         7.0402558892        6.3402686075        1.9076937844
  C         5.4560779754        5.4892542516        2.9319774391
  N        11.4215285378       -0.7666410485        1.5824474146
  C        12.2107275050       -0.5197842916       -0.5524608633
  C        12.4141304021        1.6077200761       -1.6645814385
  H        12.0216060657        3.4676644865       -0.5949638203
  H        11.5391391107        1.8731917212       17.5099795025
  H        12.8270917485        3.2413142903       17.5853391204
  H        13.1048925332        1.7551045041       18.3469786746
  S         6.0313672757        6.3350142359       17.9801607872
  C         6.2315184228        9.0951742965       18.5376941279
  H        14.8131338998        4.4177146639        6.2256886340
  H        15.5536362558        4.3888907990        4.7176844481
  C        16.5511984978        5.8162503085        6.1031502236
  H         5.1287337978        5.1784594800        3.9012041668
  H         5.5768294727        4.4750625140        2.4296103561
  C         4.4484669354        6.3251078126        2.1129028093
  S        11.6742519185       -2.2210719219        0.9899658429
  N        12.2834320337       -1.8347218226       -0.4810964467
  C        12.5551565111        0.1798450073       -1.7343688832
  H        12.5630342140        2.2894892671       -2.6099125029
  C         6.0631305174        7.0806497241       19.6086688136
  N         5.9915769581        8.4315115204       19.6617139235
  O         6.3162797103       10.3052872255       18.3249818459
  H        16.9328058117        6.3110165889        5.2305090201
  H        16.2726823459        6.7057350513        6.7626031380
  C        17.4249572291        4.8061415196        6.8650484754
  H         4.4436588444        5.9417430030        1.0657180005
  H         3.4903164843        6.0565727631        2.3978154031
  C         4.6517102240        7.8731037427        2.1255900444
  C        12.7534027692       -0.5768297180       -2.9401650819
  S         5.8161509323        6.0577880438       21.0495604472
  C         5.8718751693        9.2045526668       20.8797127028
  H        16.9380349943        4.4372354905        7.7495432640
  H        17.4653785064        3.9430379389        6.1761446385
  C        18.8099285216        5.5350024611        7.1503706697
  H         5.5719069681        8.1518495539        1.7968822807
  H         4.6084500931        8.4141477479        3.1343052858
  C         3.8467355253        8.5395302089        1.0645652423
  H        12.4318273742       -1.5719842572       -2.8884119943
  C        13.1881245472       -0.1823292196       -4.2090614839
  H         5.3292708710        8.6595584436       21.5721498961
  H         5.5982270966       10.2812039650       20.8796955742
  C         7.2182288953        9.5225000780       21.4531418505
  H        19.3474541556        4.9575306578        7.9538758801
  H        18.5397579140        6.4867782233        7.6473931952
  C        19.7112639835        5.6630100349        5.8721608508
  H         4.0257004595        7.9777945760        0.1086526993
  H         2.7540321386        8.2573913123        1.1012906071
  C         4.0843039992       10.0152643736        0.9051452242
  S        13.7934363500        1.3086003953       -4.6616035755
  C        13.3350650116       -1.2896227277       -5.1836755154
  H         7.5884193963        8.5316436017       21.7166401782
  H         7.2359491657       10.2146318381       22.4005008489
  H         7.8316157401        9.9588052129       20.7499079279
  H        19.0919365113        6.0722364848        4.9824860902
  H        20.6217401044        6.2139119974        6.0442164640
  H        20.0780540916        4.7010762260        5.4551487409
  H         3.7097061957       10.4977354094        1.8530672907
  H         5.1674140311       10.2930417302        0.5754409190
  H         3.4218110097       10.2044881060        0.0504876633
  C        14.0460359260        0.5070244023       -6.2316630112
  N        13.7154471266       -0.8041581922       -6.3461943019
  O        12.8460858195       -2.4373457061       -5.0481300904
  S        15.1228119793        1.2494182404       -7.5229331296
  C        14.1557241550       -1.5775755934       -7.4017687846
  H        13.8103166022       -2.6099069500       -7.3254329886
  H        15.2712008145       -1.4823509932       -7.4975062697
  C        13.7603971993       -1.0234959573       -8.8010747735
  H        13.3514810482       -1.9037418736       -9.3151373891
  H        14.5170804965       -0.5612986906       -9.3169591521
  H        12.8119094105       -0.4797484260       -8.6397560874
  H        -3.7695571895       14.3942277248       16.3224284477
  C        -3.1624726194       13.4525169188       16.4537138495
  H        -3.7454953219       12.8690620420       17.1673446544
  C        -1.8017619913       13.9639004088       17.1250905201
  C        -2.7142523614       12.8286566963       15.0910479543
  C        -2.0728259028       14.2284854950       18.6260373909
  H        -0.8544324538       13.4406402874       17.1473253323
  H        -1.6385268030       14.8892820994       16.6129603388
  H        -2.0152853298       11.9712550084       15.2388453134
  H        -3.5679232794       12.3408509878       14.4880125218
  H        -2.2081658384       13.5438986580       14.4862318574
  C        -1.6878470201       13.0705313123       19.6248237649
  H        -3.0535331398       14.2966122884       18.7737281726
  H        -1.5288632360       15.0964485325       18.9594661150
  C        -2.3970217920       13.2851920892       20.9646766234
  H        -1.9709760280       12.0215509316       19.2636283780
  H        -0.6303622236       13.1080064616       19.6569372886
  C        -1.5454695540       12.7358595369       22.0777395159
  H        -3.4971765635       13.0467179534       21.0927603176
  H        -2.3803575139       14.4117789914       21.1079834690
  C        -0.3926548239       13.5867116190       22.5212268528
  H        -2.0029331323       12.3518523344       22.9612610874
  H        -1.1710204662       11.8458434681       21.7157435274
  C         0.8616517265       12.9666933968       23.2187988289
  H         0.0431560097       14.3453132688       21.8280732186
  H        -0.8870182513       14.0329514941       23.3901307176
  C         1.2867724758       11.5981034461       22.5700871744
  C         0.5404444525       12.3073275617       24.4919944566
  C         2.0509089919       14.0727485013       23.3293499386
  C         1.0891303905       10.5142950913       23.4107150641
  C         1.7427254384       11.2964492220       21.3473633701
  C         0.7242919274       10.9461183764       24.7198119865
  C         0.1322286674       13.0083572292       25.6592008243
  H         2.1641361935       14.6860181777       22.3758895795
  H         1.6913436055       14.6719099625       24.0602452806
  C         3.3909161513       13.4119396555       23.6720876989
  S         1.4857049135        9.0114399089       22.6230755297
  C         1.9701546886        9.9287186270       21.1992788523
  H         1.7992413932       12.0629731835       20.6388658548
  C         0.4398536620       10.3562898736       25.8791796350
  H        -0.0899458966       14.0849002365       25.5603123421
  C        -0.0630029996       12.4016805742       26.8955000976
  H         3.6749939988       12.5210373253       22.9957784589
  H         3.2403610913       12.9906573062       24.5951503124
  C         4.5818240740       14.3703089626       24.0695740600
  C         2.4311647721        9.1922885344       19.9903276991
  C         0.0289401170       11.0168591646       27.0176259183
  H         0.6518259955        9.3220590506       25.9435172818
  C        -0.4845666811       12.7892483910       28.1522083027
  H         5.1842108408       14.0086252956       24.8618201981
  H         4.2190878009       15.3978689921       24.2486157148
  C         5.4663202413       14.4976527814       22.7924779541
  C         2.5945696826        7.7742252717       19.7739241827
  C         2.5984313808       10.0108402762       18.8310777836
  C        -0.3132738612       10.3187101352       28.2870021279
  C        -0.6327792130       11.7017497715       28.9615870429
  S        -0.8188705836       14.2996044841       28.9212771029
  H         6.0269811062       15.5044611815       22.7598592355
  H         4.7553626162       14.5824739904       21.9841864390
  C         6.3812279046       13.2984876259       22.4233595549
  N         2.4267682847        6.7564060688       20.7715650807
  C         2.7856590699        7.1866162950       18.5442592169
  C         2.9943950327        9.3855410360       17.6550126137
  H         2.7421567015       11.0372576239       18.9167629967
  C         0.8545810185        9.5405265596       29.0260498956
  C        -1.6732585203        9.4847274796       28.1605281060
  C        -1.1599978565       12.1181562144       30.1776307945
  C        -1.3427331732       13.5048507678       30.2711352667
  H         6.8196181152       12.7802461199       23.3037249296
  H         5.7541469562       12.5039714601       21.9823002579
  C         7.3601235869       13.4827232759       21.2325319600
  S         2.4373431623        5.3233749307       19.9760892548
  N         2.7775505835        5.7885989806       18.4719683823
  C         3.1709104842        7.9321010762       17.4787848478
  H         3.1880738438       10.0388826568       16.8493035888
  H         1.3443126492        8.9769069706       28.3192702266
  H         0.3620043139        8.9759188015       29.7779435228
  C         1.8888843821       10.4470676226       29.6368986861
  H        -1.5315188435        8.5950017705       27.6051648293
  H        -1.7838876270        9.2737810442       29.1974338609
  C        -2.8808829943       10.3894763634       27.7428676459
  H        -1.3168727200       11.4233634492       30.9141114315
  C        -1.6950711643       14.2109675337       31.6094488449
  H         8.2106043025       12.7740951446       21.0730540854
  H         7.8486849177       14.3996993185       21.1619883678
  C         6.4293942129       13.3839484007       20.0071191353
  C         3.4259268048        7.2665362353       16.2142084074
  H         2.3475243021       10.9320424363       28.7496468531
  H         1.6199624350       11.2032869160       30.4856834290
  C         3.0261970923        9.6423038510       30.2207715371
  H        -2.6059349387       10.8751241347       26.7650105563
  H        -3.1020021722       11.2763846653       28.2656891739
  C        -4.1401755581        9.4688699988       27.4278685696
  C        -1.6983586514       15.6418040780       31.8009842301
  C        -1.9342576008       13.4021661326       32.7781813524
  H         5.8533411123       12.4170351801       19.8887481833
  H         5.6819278641       14.2110998613       20.0850518306
  C         7.3622839967       13.4174253306       18.8102040057
  H         3.6893989583        6.2194378365       16.3999281963
  C         3.7239665012        7.7240754581       14.9325097928
  H         3.2842741534        8.7568587514       29.6393274718
  H         2.6060792830        9.3222385056       31.2139631886
  C         4.2208888906       10.5171372299       30.5688402632
  H        -3.9221004809        8.6160452883       26.7635697990
  H        -4.3531265549        9.0093527044       28.4145371301
  C        -5.3751556152       10.3505085456       27.2709023142
  N        -1.5099022306       16.5872935905       30.8116416086
  C        -1.8832643071       16.2263455625       33.0622909279
  C        -2.1566531141       13.9711392397       34.0283711659
  H        -1.9596848650       12.3477351688       32.7521257083
  H         7.9014666953       14.2584602549       18.7282184012
  H         7.9732174342       12.6056999888       18.9587262307
  H         6.7804583082       13.1837427301       17.9246227919
  S         3.7834362132        9.3855164397       14.4181591999
  C         3.8392899509        6.7264305380       13.8785799920
  H         4.4643824613       11.1434939541       29.7980180858
  H         3.9873400488       11.0831375171       31.4467536254
  C         5.5891535922        9.7528945795       30.6755631563
  H        -5.1609807702       11.0920454768       26.4317107102
  H        -5.5592975148       10.9376511631       28.1681754405
  C        -6.5967958824        9.4875371957       26.8518202455
  S        -1.4487396079       18.0041866425       31.4562250157
  N        -1.7449025806       17.6096972440       33.0316744130
  C        -2.2025259218       15.4590095414       34.2360528374
  H        -2.1808041463       13.4703762921       34.8823070873
  C         3.9860985893        8.7285110919       12.7648450845
  N         4.1674587037        7.4552926128       12.7083155639
  O         3.6876889214        5.5194230432       14.0451333037
  H         6.2278905887       10.4481612819       31.1295551463
  H         6.0521552156        9.6451144496       29.6240141526
  C         5.7010623893        8.3824786263       31.3664596561
  H        -6.2198521435        8.9221041852       26.0447821549
  H        -7.0301653541        8.9264493407       27.6437690549
  C        -7.4894238297       10.4855092588       26.0779197727
  C        -2.4474809866       16.1786926047       35.4920489974
  S         4.4598683566        9.6021089875       11.2851428399
  C         4.3183106972        6.5079735478       11.5757634552
  H         6.3888504299        8.2835103246       32.2222947679
  H         4.8058658962        8.1005426117       31.9848211449
  C         5.8615860859        7.1068274387       30.4437202084
  H        -7.3741040203       10.4074676602       25.0420374177
  H        -7.4075575659       11.5125160160       26.4504979935
  C        -8.9453450759       10.0482848136       26.0076594678
  H        -2.1738979730       17.2103359546       35.5160510170
  C        -3.0285916244       15.7413539985       36.6457311632
  H         4.9266776574        6.9226328142       10.7849410618
  H         4.7453580720        5.5460274853       11.8043028876
  C         3.0004341768        6.3556823330       10.8349837853
  H         6.7963635721        7.1319099367       29.7611671589
  H         4.9993574560        6.9469986508       29.8154909877
  C         5.9886757485        5.8118477711       31.2680919313
  H        -9.4738016213       10.2356714865       24.9821213098
  H        -8.9378745413        8.9991734258       26.1356123785
  C        -9.7289135472       10.6210662634       27.1666125219
  S        -3.7742248150       14.2936603736       36.9148358635
  C        -3.1573628861       16.7586563146       37.7674211341
  H         2.6335173665        7.2923359996       10.6672609743
  H         3.0633819874        5.7539525396       10.0061656199
  H         2.1991482657        6.0583649668       11.4371714618
  H         4.9912382565        5.2981337930       31.5053683585
  H         6.3670661764        6.0031147788       32.3137460784
  H         6.7336936620        5.1021798379       30.7804043484
  H       -10.1187446576       11.5956280023       26.8917620682
  H        -9.1836626103       10.6532952474       28.1125038086
  H       -10.6234748553        9.9909066546       27.3497643457
  C        -4.0179652510       14.8632935171       38.6210024034
  N        -3.8336318197       16.1822715196       38.7452664977
  O        -2.6864572407       17.8817298744       37.7129186968
  S        -5.0796319656       14.0417751197       39.7323299104
  C        -4.0012706483       17.0892603616       39.8952462683
  H        -4.1665012787       18.1580965295       39.5745158710
  H        -4.9354567824       16.7131228287       40.2799345398
  C        -2.8915343513       16.9145806450       40.8915087550
  H        -3.3437368367       16.7123469117       41.8395896778
  H        -2.2028042682       16.0006208376       40.7985311190
  H        -2.2707657374       17.6935075605       41.0595284912
