352
i=
  H         4.6147436185        1.5113939526       12.9893302610
  C         4.0317045461        2.4295928846       13.0016899751
  H         4.8276125873        3.1971767018       12.9994147159
  C         3.1507817351        2.5349297332       11.7617119953
  C         3.2555545856        2.4962140760       14.2544913017
  C         3.9002708367        2.6904561967       10.4528011293
  H         2.4848959987        3.4332598048       11.8619047258
  H         2.6195555610        1.6352274989       11.6716432447
  H         3.3776618323        1.6448174016       14.8796842665
  H         2.2102899368        2.4212754600       14.0347588671
  H         3.3899382955        3.3928845832       14.8711490954
  C         4.5632104696        1.3638125117        9.8851831166
  H         3.0889635433        3.1310604090        9.7877066185
  H         4.7225278990        3.4568788261       10.6013892560
  C         5.2928461952        1.6088447168        8.5971182846
  H         3.9394496838        0.5239761486        9.7225487427
  H         5.3787915446        1.1095215826       10.5771941370
  C         6.6200391475        2.4448025676        8.6802936310
  H         4.6075038979        2.0495284590        7.9115415969
  H         5.6221677546        0.6398347223        8.2878160711
  C         7.7575603740        1.7185549116        9.4481197661
  H         6.9545912492        2.8747683261        7.7191221300
  H         6.4591366510        3.2844520420        9.3344574815
  C         9.0607551170        2.5939729135        9.5329235935
  H         8.0438390396        0.7987062772        8.8895809756
  H         7.4774962228        1.4494838825       10.4338180433
  C         8.6950819028        3.9007762659       10.2463572452
  C         9.4718105258        3.3295925907        8.2831075816
  C        10.1873015153        1.8782657568       10.2877821394
  C         9.0666065493        5.0207120355        9.4615112817
  C         8.1241904036        4.2579101328       11.4745103903
  C         9.4978205406        4.6619327065        8.2013275052
  C         9.8901085881        2.7471237863        7.0745301066
  H         9.8193524781        1.5306764831       11.1934777360
  H        10.5987462568        1.1501542768        9.6451011274
  C        11.2997655505        2.8734145555       10.7583271926
  S         8.7905636280        6.4956487886       10.2858824663
  C         8.0395580874        5.6382083251       11.5998007768
  H         7.8743335020        3.4468957967       12.1822419056
  C         9.7218746990        5.3220463583        7.0693272241
  H         9.9303484024        1.6962434672        7.1531524630
  C        10.2605087560        3.3878815365        5.9032494878
  H        10.7551131840        3.5414522152       11.4707085585
  H        11.7002482995        3.4072380037        9.9336482922
  C        12.4518358939        2.1526828753       11.4876342349
  C         7.6257931062        6.4277580869       12.8349892565
  C        10.2324421776        4.7673216197        5.8311023601
  H         9.6797868597        6.4257885815        7.0874846573
  C        10.7033459260        2.9850266263        4.6595396973
  H        13.3672500583        2.7359462809       11.5876912166
  H        12.7879204705        1.2307681719       10.9176424663
  C        11.9645973080        1.7560136690       12.8819598386
  C         7.7552534477        7.8194286061       13.0703625362
  C         7.1318848437        5.6457973553       13.9754688679
  C        10.5966074828        5.4395815387        4.5046614614
  C        10.8268277452        4.0638540631        3.8067080980
  S        11.0267694650        1.4426079766        3.8975478106
  H        10.8947723723        1.9327848740       13.1492069796
  H        12.1618858720        0.7122311389       12.9806095535
  C        12.7115184868        2.4498991938       14.0299682330
  N         8.0885665413        8.7854828362       12.1532807711
  C         7.5586183932        8.3453335061       14.3142086050
  C         6.7865812389        6.1981948989       15.2490177480
  H         6.9689019095        4.6001135909       13.8923361507
  C        11.9836468274        6.2668828656        4.6474178645
  C         9.4747923777        6.3130654309        3.7933935811
  C        11.1658330153        3.6282521635        2.4931021217
  C        11.3051817444        2.2346273007        2.3956345861
  H        12.7920596190        3.4885786143       13.8781576797
  H        13.7099742275        2.0386717447       14.1581396292
  C        12.0611050909        2.3519974899       15.3900829916
  S         8.3637627922       10.1823091921       12.8938150303
  N         7.8035536938        9.7162425871       14.3089595282
  C         6.9543678585        7.6919342889       15.3985646637
  H         6.3605027202        5.5269699589       15.9511899109
  H        11.9332958832        7.2089801424        5.1056086101
  H        12.1293333745        6.4949260243        3.6116909086
  C        13.1579559876        5.4933472920        5.2954379644
  H         9.1191332583        6.9790322185        4.6098719922
  H         9.9401817466        6.8556412814        2.9754004135
  C         8.2294922943        5.5534176382        3.2132194611
  H        11.2615381083        4.4028607119        1.7542168000
  C        11.6606935973        1.3914937386        1.1588316943
  H        11.8620648842        3.4030602541       15.6933928306
  H        11.0721261240        1.9230930272       15.2311083584
  C        12.9889333006        1.6071001062       16.4050725232
  C         6.6841834107        8.4281851428       16.6261070660
  H        12.7573343283        5.2803992857        6.3205807264
  H        13.3859577208        4.5129234283        4.8676458712
  C        14.4888421062        6.2140570748        5.2920568440
  H         7.7479188750        4.8800018165        3.9680285620
  H         8.4786524180        4.7822079226        2.4484945366
  C         7.2626422567        6.5894027696        2.5252643871
  C        11.8659294387       -0.0463259729        1.1080716995
  C        11.7233656729        2.0765682380       -0.1313318849
  H        13.9783322284        2.2244227708       16.4172614490
  H        13.1451412988        0.6012202657       16.0249533935
  C        12.4207409451        1.6820074806       17.8520739856
  H         6.8845558179        9.4770133242       16.5336142583
  C         6.3319219191        8.0244395674       17.8846552227
  H        14.5705098065        7.1351367607        5.8461259788
  H        14.6280910822        6.4952654808        4.2213287264
  C        15.6027211640        5.4967757354        5.8846192586
  H         6.8039731365        7.2739923316        3.2212134838
  H         7.8661200567        7.2942382078        1.8830341117
  C         6.1666741636        5.9731672264        1.7343569545
  N        11.7275804183       -0.9437879188        2.2124139937
  C        12.1366434982       -0.7342897928       -0.0490070248
  C        12.1983931979        1.3753125544       -1.2524702540
  H        11.5812671803        3.1197309646       -0.1958522571
  H        11.3862486168        2.0044661579       17.7932893909
  H        12.9451219913        2.4445091875       18.3942373292
  H        12.4831270930        0.7676976400       18.3932274126
  S         5.9548735521        6.4090024419       18.3415608476
  C         6.3881121962        9.0276691936       18.9093397248
  H        15.1687639646        5.1598126018        6.8916540001
  H        15.8081211517        4.5957563191        5.3019849038
  C        16.8845165588        6.2648183185        6.0120423270
  H         5.8891032529        5.0385598401        2.1092761900
  H         6.5537161425        5.8164116186        0.7125621393
  C         4.8714851914        6.8526569709        1.5989608199
  S        11.6264772570       -2.5318124693        1.6341450840
  N        12.1126697291       -2.1130453931        0.1634565340
  C        12.4118804367       -0.0727373544       -1.2372230987
  H        12.4245378814        2.0028009234       -2.0535982203
  C         5.7534201637        7.1382942452       19.9739944904
  N         5.9126675059        8.5212464257       20.0466705352
  O         6.8856470824       10.1066820828       18.7656737724
  H        17.4607074747        6.1708714722        5.1118853387
  H        16.7428005108        7.3257603307        6.2725569802
  C        17.5272962420        5.6743335365        7.1434248767
  H         4.2233269310        6.1123309266        1.1877366050
  H         4.4085920186        7.0365126699        2.5501666959
  C         5.1494817881        8.1515626368        0.7968396284
  C        12.8988340733       -0.8351799773       -2.3407690996
  S         5.2515159910        6.3145396996       21.4430382024
  C         6.1139121499        9.2524817714       21.3349425892
  H        17.1883774444        6.2375374811        8.0128932668
  H        17.1556053523        4.6285867158        7.2757374961
  C        19.0086263346        5.9412876130        7.1642832349
  H         5.4481938430        7.7836940459       -0.1961629957
  H         6.0760426855        8.7087670848        1.1845976183
  C         3.8808575142        9.0536952593        0.8210171533
  H        12.7783690537       -1.8763944370       -2.1754686719
  C        13.3873158973       -0.4981866446       -3.5612155291
  H         5.4180844799        8.9867201760       22.1603747375
  H         5.7684984320       10.3182947750       21.1329678011
  C         7.4545417077        9.2397960994       21.7676646531
  H        19.3174004424        5.9371897947        8.2346959430
  H        19.2729857192        6.9032488816        6.8141434101
  C        19.8179598817        5.0853515745        6.1380350602
  H         3.8503984929        9.7330663756       -0.0639922790
  H         2.9291725454        8.5079188323        0.8764283643
  C         3.8820090413        9.9179813936        2.0460371166
  S        13.7016454380        1.1425183364       -4.1264298451
  C        13.6602343457       -1.5518521861       -4.6267553458
  H         7.5039505126        8.6887672865       22.7513811960
  H         7.7578057669       10.2368795724       21.9410715957
  H         8.1348963138        8.9676456275       21.0883130869
  H        19.2681554671        4.1719799108        6.0236668229
  H        19.9190917624        5.5541844358        5.1620661656
  H        20.8759720351        4.9084290374        6.4498272532
  H         3.0255173040        9.7900352802        2.6712422581
  H         4.8006544948        9.6951617705        2.6886338433
  H         3.8241306709       10.9836006261        1.7288183291
  C        14.1436454043        0.3994595553       -5.6878285401
  N        14.0086401231       -0.9412765561       -5.7811734945
  O        13.3746431698       -2.7879196864       -4.4816503031
  S        14.7553594880        1.3727703470       -7.0649874933
  C        14.1381674467       -1.6732500785       -6.9864139049
  H        14.1777653565       -2.7512393906       -6.8209776801
  H        15.0894481077       -1.4829131061       -7.5612260648
  C        12.9059490845       -1.4302892819       -7.7509541328
  H        12.5333203591       -2.2886602830       -8.2805380250
  H        13.0962384739       -0.7046326351       -8.6098066615
  H        12.2008723526       -1.0835813750       -7.0313517813
  H        -2.7100605437       15.0982536486       16.0533401412
  C        -3.0444115488       14.1384709122       16.3409907599
  H        -3.9432494474       14.3520807665       16.7121960519
  C        -1.9858443502       13.6854724514       17.4513655343
  C        -3.1311503343       13.1825246235       15.0839779524
  C        -2.5633470882       13.6990469944       18.8729055448
  H        -1.7502210945       12.6529101575       17.1837188774
  H        -0.9801989231       14.1281815622       17.3656116731
  H        -3.1074615903       13.7306516886       14.1080369118
  H        -2.2366784528       12.6006048303       15.0404263560
  H        -3.9916801937       12.5513008433       15.1220481655
  C        -1.4887130396       13.8322000225       19.9589470084
  H        -3.0553927403       12.8023319318       19.0610143095
  H        -3.2510826569       14.5213253536       18.9495248074
  C        -1.9622317227       13.8481447595       21.3790764851
  H        -0.7557411063       13.0459313445       19.8072646652
  H        -0.9387401775       14.7375859931       19.7673000711
  C        -0.9672987996       13.2347344040       22.3159544174
  H        -2.8157003559       13.2249646947       21.3787229396
  H        -2.2609650171       14.8886357675       21.6910541638
  C         0.3560725519       14.0299009428       22.4469763790
  H        -1.5192478906       13.1283681060       23.2803875289
  H        -0.6229007437       12.2175047698       21.9630561735
  C         1.4688817469       13.2722974135       23.2823297858
  H         0.7257390243       14.1676971751       21.4410912436
  H         0.2508500098       14.9826946031       22.8008304419
  C         1.8685265978       11.9570161821       22.6854411473
  C         0.9364332291       12.5669819763       24.4811193802
  C         2.5797863840       14.2570149338       23.6214634293
  C         1.5036755808       10.8090529334       23.4069065467
  C         2.4388543032       11.5134875524       21.5008632649
  C         0.9854446237       11.2243437826       24.5931866762
  C         0.3928704976       13.1816373843       25.6346695638
  H         2.8884185870       14.6555217816       22.6645144546
  H         2.2293356745       15.0796971407       24.2523862188
  C         3.7941514831       13.6866363500       24.3343545534
  S         1.6498321031        9.2994655292       22.6227249206
  C         2.3827362751       10.1983376933       21.3676303674
  H         2.7639655726       12.2130410739       20.8029966921
  C         0.5515351336       10.5681719388       25.7091899904
  H         0.3324862504       14.2155664532       25.6596226767
  C        -0.0245790209       12.5187143945       26.7725674352
  H         4.1440230708       13.0641596031       23.5261320260
  H         3.5465891010       12.9486893379       25.1283917542
  C         4.9553065843       14.6122567164       24.7469798262
  C         2.6918523890        9.4867598041       20.0632325444
  C         0.0178503257       11.1619965469       26.8911339845
  H         0.6408744313        9.4684763650       25.7147097273
  C        -0.3385636325       12.9013724198       28.0516242459
  H         5.7159348326       14.1273596623       25.4024145948
  H         4.6328683533       15.5645266940       25.1715988560
  C         5.8701472082       15.0891798735       23.5844215789
  C         2.5246565121        8.0479843430       19.7688384040
  C         3.1916355044       10.2043420532       18.9070600693
  C        -0.2844987831       10.4513334090       28.2321569079
  C        -0.5707299254       11.7968147334       28.8769818179
  S        -0.5467973291       14.3943758536       28.8944532999
  H         6.5294999230       15.8324962602       23.9635550335
  H         5.1487270823       15.5279911699       22.8547287436
  C         6.8362740825       14.0766009595       22.9116659904
  N         2.0618323912        7.1410851710       20.7160426154
  C         2.7156418836        7.4736279732       18.5038442525
  C         3.3222680239        9.6602644023       17.5746229048
  H         3.5653825188       11.1637830777       19.0180837119
  C         0.9333329917        9.7159014172       28.8039151677
  C        -1.5886133575        9.6031088969       28.0983380782
  C        -1.0401975329       12.1923776601       30.1184434345
  C        -1.0090017253       13.5336399514       30.3184326043
  H         7.6785260610       14.7113844727       22.7065740722
  H         7.2298073760       13.4125092484       23.7299185284
  C         6.3986169880       13.4081628805       21.5806557181
  S         2.1015217681        5.6870487214       19.9930620516
  N         2.5256738946        6.0822401711       18.4533879255
  C         3.0683929267        8.2236935650       17.3592594083
  H         3.7226767259       10.3053508666       16.7691022812
  H         1.3555081841        9.1203938137       27.9519391039
  H         0.5316619314        8.8978970706       29.4307765092
  C         2.0215484184       10.6039494135       29.3675424570
  H        -1.3953210699        8.8020165280       27.3672428456
  H        -1.8453468500        9.1593675585       29.0575945380
  C        -2.7890536382       10.4360525127       27.5387111886
  H        -1.2387966629       11.4265391776       30.8989867280
  C        -1.4034028367       14.2914068481       31.5907569452
  H         5.6070539971       14.0393279263       21.2266652367
  H         5.9029549162       12.4784358735       21.8076905099
  C         7.4624195682       13.1763893287       20.4478981476
  C         3.3136287181        7.5915338462       16.0999107055
  H         2.4422399889       11.2903489774       28.6119268581
  H         1.6162718370       11.1926936644       30.1886471557
  C         3.1302760794        9.6671158534       29.9932537328
  H        -2.5744124347       10.8719317485       26.6008940907
  H        -3.0755052574       11.2774746340       28.1828535507
  C        -3.9842251905        9.5663114156       27.4285581250
  C        -1.4926852902       15.7134725512       31.7350150754
  C        -1.6218693365       13.5122916831       32.8048104227
  H         8.2777950062       13.8808928395       20.5665647905
  H         7.7635004528       12.1907745083       20.4272427988
  C         6.9408185773       13.4383991794       19.0425282775
  H         2.9547362214        6.5757816557       16.1868815980
  C         3.5804620651        8.0610328926       14.8248716305
  H         3.4537124814        8.9553989147       29.2523946783
  H         2.6621236492        9.1781689693       30.8313250724
  C         4.3823111167       10.4845767730       30.3792685067
  H        -3.8160040931        8.8772099858       26.6271415886
  H        -4.0452201640        8.8947097059       28.2544315145
  C        -5.2512083990       10.3874967440       27.2465971030
  N        -1.2824579847       16.6284250382       30.6936556675
  C        -1.7510998421       16.3511433502       32.9228435875
  C        -2.1020414512       14.0980774460       33.9552922517
  H        -1.5079040731       12.4611087788       32.7743985333
  H         5.9240846439       13.0565983363       18.9027673870
  H         6.9317684214       14.5337597309       18.8597037692
  H         7.4988538489       12.9297443415       18.1809515425
  S         3.8422561346        9.6592316450       14.3602171267
  C         3.7999627135        7.0953820348       13.7220236765
  H         4.5302017305       11.2464430186       29.6028396700
  H         4.3160670918       11.0396746441       31.3279193377
  C         5.6738188510        9.6470171309       30.5724396616
  H        -5.0695146154       11.3119315089       26.6809857330
  H        -5.7071870291       10.6555144990       28.1308640470
  C        -6.3769168240        9.6537833269       26.5126454856
  S        -1.3043844351       18.1123584117       31.3380110970
  N        -1.7511527802       17.7433178207       32.8546316626
  C        -2.1762607381       15.5754213771       34.0859953386
  H        -2.3062529516       13.3624398823       34.6535427857
  C         4.4547585078        8.9672080096       12.9132610840
  N         4.3429548653        7.6759326836       12.6687919348
  O         3.6850853312        5.8898912699       13.7966870349
  H         6.4812524802       10.2686791449       31.0561010426
  H         6.0762648891        9.5956085446       29.6068044263
  C         5.4976766999        8.3441452488       31.3139716199
  H        -5.9836458547        8.8782295483       25.9094242905
  H        -6.9921668659        9.2283959974       27.3430658080
  C        -7.2201544977       10.4726920515       25.5470858320
  C        -2.5156196346       16.2544422607       35.3094133737
  S         5.0918288575        9.9887402147       11.6278423470
  C         4.4976474398        7.0002958736       11.3394139998
  H         4.9244875724        8.5714589514       32.2100581977
  H         4.8447297410        7.6802290196       30.7777445873
  C         6.7554620018        7.6277595083       31.8520963005
  H        -6.5104270530       10.8734521509       24.8911101535
  H        -7.5884510574       11.2777063317       26.1858022045
  C        -8.3735454751        9.7954650593       24.8789726478
  H        -2.2015358928       17.2844044382       35.2850417061
  C        -2.8473360092       15.8780619131       36.6638059369
  H         5.4396443934        7.3875445138       10.8820144657
  H         4.7473733581        5.9589918261       11.5980832697
  C         3.1713737596        6.9870020252       10.5249330901
  H         7.0975001334        8.2396997156       32.7103311770
  H         7.4396384287        7.5713402235       31.0449326636
  C         6.4411229391        6.2324107796       32.4093020945
  H        -8.6581577862       10.2843056263       23.9428327041
  H        -8.1298304826        8.7477134041       24.5192804275
  C        -9.5868569897        9.5710322629       25.8106098794
  S        -3.2982078411       14.3012464557       37.1360022161
  C        -2.9504719903       16.9470306877       37.6681175805
  H         3.2713037725        6.6818189617        9.4868814278
  H         2.4362042570        6.2933345140       10.9648016324
  H         2.6216976705        7.9843887205       10.5743488107
  H         7.3404429253        5.6925581037       32.6586911936
  H         6.1261312184        5.6293244266       31.5586951760
  H         5.7188800997        6.1370219029       33.1872552786
  H        -9.4314380908        9.0068410334       26.7243705495
  H       -10.3834833513        9.0617101882       25.2525304835
  H       -10.0203499419       10.4922319471       26.1182511079
  C        -3.8142849311       15.0976603874       38.6445689012
  N        -3.6814185335       16.4259787102       38.6419657377
  O        -2.6493431456       18.1312339954       37.4029238401
  S        -4.9594646116       14.4582678058       39.7554674460
  C        -3.9858583974       17.2866913849       39.7876160107
  H        -3.9508796875       18.3538290459       39.4724221937
  H        -4.9785204384       17.1364457155       40.1321676126
  C        -2.8508041651       17.1710939133       40.8116268363
  H        -3.0864912279       16.3100875061       41.4499328638
  H        -1.8645365191       16.9628190040       40.4535262040
  H        -2.7205114141       18.0230206480       41.5248168273
