352
i=
  H         4.8973469071        1.9145644056       12.7492887090
  C         4.2537767854        2.8125534337       12.6652566941
  H         5.1051191804        3.5475058912       12.6097945942
  C         3.3165930759        2.8826581705       11.5079634509
  C         3.4368661284        2.8146402374       13.9769341011
  C         4.1082660576        2.9657028794       10.1572008484
  H         2.6384923366        3.6982048155       11.7156024420
  H         2.5956091274        2.0519109169       11.5770573936
  H         3.6679315079        2.0122534826       14.5775663292
  H         2.3582698976        2.8809592745       13.8097007402
  H         3.6551415429        3.7157348609       14.5082914256
  C         4.8231345705        1.6400343735        9.7928078919
  H         3.3873347233        3.1719195330        9.4011413894
  H         4.8216940445        3.8071877986       10.1640523702
  C         5.4097518235        1.4974452497        8.3290530138
  H         4.1470173993        0.8616601441        9.8621363738
  H         5.6740559503        1.5526185762       10.4361006484
  C         6.6393544333        2.3784691634        8.1612661664
  H         4.7293232125        1.7319992214        7.5493241571
  H         5.7021934221        0.4580222823        8.1608358723
  C         7.9033138696        1.8005270129        8.7477161288
  H         6.7254386942        2.5944875554        7.1501209121
  H         6.3328448637        3.3460493845        8.6219813401
  C         9.1193434564        2.8037517793        8.9749269995
  H         8.3899554714        0.9443324914        8.2400476103
  H         7.6138987386        1.3413531867        9.6985039737
  C         8.7913875662        4.1501644427        9.7105007908
  C         9.6148282234        3.4667117116        7.7168659275
  C        10.3231008775        2.1777764871        9.7799473796
  C         9.0019152318        5.2201477878        8.8584285375
  C         8.1709798460        4.4892123354       10.9338664383
  C         9.5311929723        4.8441650996        7.6081061476
  C         9.9693389101        2.8257639178        6.5583718907
  H         9.9153238987        1.8316184646       10.7203745615
  H        10.6102638707        1.1841384066        9.3629949594
  C        11.5691697344        3.1244415626        9.9290651427
  S         8.5589952463        6.6955229804        9.6188896115
  C         8.0588306685        5.8643236608       11.0131506385
  H         7.8730598912        3.8144447311       11.6678187673
  C         9.9923957002        5.4685701184        6.4681008463
  H         9.7410797049        1.7589955296        6.4655048739
  C        10.3038322130        3.4230592155        5.3709413819
  H        11.2447800810        4.0960915865       10.2789487651
  H        12.1616865083        3.2248905845        8.9742702808
  C        12.5621252358        2.6545486213       11.0743168465
  C         7.6874805685        6.4969189599       12.3026860787
  C        10.3788193078        4.8142139783        5.2460870917
  H         9.9947385977        6.5225577901        6.4942241394
  C        10.6981427161        3.0065690210        4.1157744816
  H        13.3474817249        3.4239741611       11.1340328904
  H        13.1251254292        1.7444091518       10.9063672889
  C        11.8933631542        2.6411053487       12.4414518886
  C         7.7839659818        7.8894639406       12.5144632033
  C         7.1510049191        5.6777409465       13.4266032628
  C        10.7948219670        5.4672968848        3.9386402109
  C        10.8845542886        4.0560771884        3.2354394870
  S        10.8552126968        1.5006856386        3.3954554051
  H        11.2416662640        3.4946862267       12.5323565039
  H        11.3390823797        1.6300419864       12.4987439736
  C        12.8664711086        2.6836670798       13.5562675680
  N         8.1832215979        8.9269498635       11.6069729836
  C         7.4467766647        8.4215846177       13.7611866240
  C         7.0211773404        6.1869364777       14.6643410971
  H         6.9304516228        4.6572451737       13.2499013246
  C        12.1976585493        6.1398687878        4.0700341829
  C         9.7112590131        6.3542832892        3.2549718646
  C        11.1473751794        3.6212997609        1.8875829933
  C        11.1416489366        2.2472285467        1.8381397733
  H        13.1322958710        3.6274292407       13.9003640105
  H        13.8671950825        2.2330948143       13.2875300079
  C        12.3000080797        1.9479421578       14.7581196270
  S         8.1567102844       10.3736858586       12.3968909795
  N         7.4942662142        9.8455766908       13.8435963299
  C         7.1729673014        7.6505867166       14.9539300041
  H         6.7204486350        5.4382034144       15.3247460061
  H        12.0000616973        6.9487765190        4.7419746606
  H        12.3998097330        6.4951043014        3.0528726117
  C        13.2799506097        5.1732217463        4.6189045770
  H         9.3890451119        7.0306233831        4.0151450854
  H        10.0555455808        7.0204465369        2.5224893831
  C         8.5419087267        5.5625709748        2.6150532037
  H        11.3291517946        4.3523138979        1.1025787702
  C        11.6041454474        1.5328511965        0.6016056315
  H        11.3266170978        2.3405365408       15.1209514368
  H        12.3162499659        0.9016962796       14.5326291635
  C        13.4252960518        1.9328260926       15.7904943317
  C         7.0494549004        8.3082282234       16.2041718866
  H        13.0085260477        4.8518513361        5.6245763504
  H        13.4718523847        4.4010673102        3.9600294514
  C        14.5581837240        5.9652752846        5.0162765101
  H         8.2454560532        4.8881749367        3.3945472106
  H         8.8951863143        4.9961384721        1.7491906403
  C         7.3608043343        6.4958051103        2.2305114893
  C        11.5681766913        0.1296121380        0.3139069613
  C        11.8489951463        2.3271104244       -0.5700565701
  H        14.2252189375        2.6410510412       15.5297031429
  H        13.8409369145        0.9448606247       15.7728304898
  C        12.9248963929        1.9891460640       17.2362822128
  H         7.1442697231        9.3563449734       16.1455920357
  C         6.5953094984        7.8949170605       17.4166319085
  H        14.2573155934        6.7135990138        5.7146324090
  H        14.9211458929        6.3716457941        4.0912555931
  C        15.6363569845        5.2032328130        5.7954791232
  H         7.4451466177        7.4069254156        2.8077389309
  H         7.4735970527        6.7485496256        1.2154606998
  C         5.9128437718        5.9573766996        2.3729787898
  N        11.2298995095       -0.7638643579        1.3274641946
  C        11.8603529032       -0.4730468926       -0.8613942021
  C        12.1515995026        1.6721387649       -1.8126646487
  H        11.9774589819        3.4032102114       -0.4748393019
  H        13.1286472322        2.9146524466       17.6520044114
  H        13.5321450958        1.3965010966       17.9174181669
  H        11.8590973593        1.7407928342       17.3588835481
  S         6.2021131655        6.2256050319       17.8253412263
  C         6.4010014232        8.8205103934       18.5563441546
  H        15.1750088923        4.7917789819        6.6932905251
  H        15.9657917645        4.3227860916        5.2275476667
  C        16.8678990644        6.0265602822        5.9952359010
  H         5.4622289111        5.9253745931        3.4057261711
  H         5.8761350459        4.9641024658        1.8468491196
  C         4.7954154907        6.8514549341        1.6504073061
  S        11.1563802162       -2.2696650646        0.6864544504
  N        11.6453433255       -1.8161099312       -0.8253379565
  C        12.2426770210        0.2131561776       -1.9901823519
  H        12.5126012484        2.2227310873       -2.6292685685
  C         5.9542182752        6.8125423862       19.4683273310
  N         6.0573278662        8.1353433514       19.6502267823
  O         6.5761499277       10.0354783706       18.4803861917
  H        17.3600354592        6.1637638651        5.0300352183
  H        16.5807750541        6.9033380357        6.5076292552
  C        17.9046263109        5.2904317898        6.7914237104
  H         5.2314916785        7.1799119417        0.6952211258
  H         3.9129703715        6.2115023183        1.5539813174
  C         4.6136242111        8.2782200678        2.2654002345
  C        12.6021586210       -0.4712476497       -3.1621002435
  S         5.3739281004        5.7989217948       20.8306029888
  C         6.1171843979        8.7544998809       20.9224960579
  H        17.5481171091        5.4487878075        7.8591243857
  H        17.9681814451        4.2214630715        6.6779757502
  C        19.3296787746        5.8539914291        6.7573674430
  H         5.5021869417        8.8509982493        2.0008677770
  H         4.5279688661        8.1134864047        3.3124953233
  C         3.3225362041        9.0326496123        1.7677210633
  H        12.2862317088       -1.4463138515       -3.1082565589
  C        13.2534903726       -0.2149804432       -4.3147699797
  H         5.5379333458        8.2947631121       21.6559022498
  H         5.6338178700        9.7470038490       20.8825108168
  C         7.5006480902        8.8919356436       21.4634058903
  H        19.8615681509        5.3445843976        7.5018638426
  H        19.4509019820        6.9758481149        6.9475678475
  C        19.9080653469        5.6951934708        5.3903625946
  H         2.4972687983        8.3841870652        1.7130860537
  H         3.0728586387        9.7942183005        2.4918677330
  C         3.5046941628        9.6066233818        0.3401632377
  S        13.8838633490        1.2700551110       -4.8550814595
  C        13.3008320294       -1.2814928141       -5.3245020425
  H         8.3111923803        8.7314328990       20.6784458125
  H         7.6011328417        8.3195390194       22.3097575603
  H         7.6536773566        9.9328272345       21.7740323964
  H        20.9403120034        5.8363625425        5.4728658246
  H        19.7652211797        4.6890007947        4.9747309760
  H        19.6352907930        6.4395952539        4.7238410209
  H         2.6665766045        9.6444496791       -0.3171104746
  H         3.9493661027       10.6093666073        0.3943548441
  H         4.1459245644        8.9098050706       -0.1724390755
  C        14.0396927455        0.4924606626       -6.4421102888
  N        13.7051965288       -0.7809204522       -6.4632954615
  O        12.9073743924       -2.4739578273       -5.0935986562
  S        14.2518411198        1.3371813028       -8.0034096245
  C        13.6683057618       -1.6247112099       -7.7101282282
  H        13.7557566410       -2.7220364490       -7.4764909917
  H        14.5491049618       -1.3981229059       -8.3906769537
  C        12.3603157979       -1.5346589218       -8.4735864562
  H        11.4773601760       -1.7741801185       -7.8586158587
  H        12.4169513982       -2.3029736926       -9.2489901260
  H        12.1973897535       -0.5913383475       -9.0276305287
  H        -3.3557542896       13.0080289908       16.6351861628
  C        -2.5920513141       13.7192403736       16.8310306718
  H        -1.7221222865       13.2743948791       17.2943526646
  C        -3.1052574648       14.7841324181       17.7896722627
  C        -1.9383057536       14.1572774675       15.4661115499
  C        -3.5768370616       14.1829273229       19.1652006909
  H        -2.3529090201       15.5590798935       18.0337659449
  H        -3.9949721313       15.2969786468       17.3616634918
  H        -0.9098138384       14.5054753679       15.4998612875
  H        -1.8356277005       13.3770288568       14.6806201611
  H        -2.4472185799       14.9844716383       14.9361546260
  C        -2.3931997464       13.6138688504       19.9478580837
  H        -4.2813548968       13.3311023662       18.9825655474
  H        -4.1162886968       14.9287680551       19.7282014691
  C        -2.7805109810       13.5069915408       21.3718039801
  H        -2.2173628786       12.6601357789       19.4329504010
  H        -1.5350679487       14.1893232210       19.7946649718
  C        -1.6527751166       12.8937272558       22.2688256971
  H        -3.6796602554       12.9185959586       21.5887600984
  H        -3.0019064521       14.5406514309       21.7329200024
  C        -0.4694723695       13.7934780973       22.6841220616
  H        -2.1727377886       12.3898395474       23.0706023346
  H        -1.2619883078       12.1105522925       21.6935294988
  C         0.7493330076       13.0225595634       23.3527988799
  H        -0.0749149402       14.3247414997       21.7761816748
  H        -0.8597618507       14.4621690959       23.3455284497
  C         1.1348692533       11.7316675631       22.6209577442
  C         0.4137247424       12.2700855190       24.5995787236
  C         1.9628889637       14.0319990126       23.5704865588
  C         1.0682643903       10.6082464323       23.4382492874
  C         1.6118467006       11.3723802803       21.3324822640
  C         0.5018623100       10.9225943974       24.6537500275
  C        -0.1216396809       12.8307809337       25.7378445175
  H         2.2391161177       14.3250410296       22.5376287288
  H         1.7124434000       14.8636424902       24.1864132907
  C         3.1965499218       13.2582593970       24.1608522741
  S         1.4968743092        9.1242335589       22.6793359835
  C         1.9154824145       10.0276886895       21.2457159350
  H         1.7506712632       12.1069871184       20.5151800087
  C         0.0313069893       10.2446878592       25.7692898573
  H        -0.2454605862       13.9200271509       25.7833434975
  C        -0.4223450292       12.1866919285       26.9024685913
  H         3.4690723331       12.5717157093       23.3582271792
  H         2.9317200905       12.6184980731       25.0616330552
  C         4.4648146460       14.0154131596       24.5885399130
  C         2.4799299062        9.3800928039       19.9572992433
  C        -0.4366763910       10.8627611091       26.9575301996
  H        -0.0072757736        9.2272630405       25.5882572548
  C        -0.7787719400       12.5732424995       28.0962550386
  H         5.2490941614       13.4002439480       25.0845202986
  H         4.3247848868       14.7807729290       25.3276917109
  C         5.1554361726       14.7213946191       23.4035497649
  C         2.4705214510        7.9868815168       19.6244317323
  C         2.8555012756       10.2695848692       18.8473911092
  C        -0.8579786804       10.1382952278       28.1738477084
  C        -1.0919843632       11.4728160604       28.8629729754
  S        -0.8753214546       14.1341384032       28.8438207044
  H         5.8287162737       15.4230001337       23.8514971107
  H         4.3501889213       15.3083315267       22.8308715593
  C         5.9223613858       13.6799861496       22.5502937218
  N         2.0718774252        6.9591546736       20.4759045496
  C         2.7901220564        7.4753315111       18.3728071886
  C         3.2269581590        9.7716773715       17.5972291481
  H         3.1146886202       11.3257321248       19.0345620626
  C         0.1673584605        9.3171869742       29.0097606899
  C        -2.1792690068        9.3620186621       28.0873166745
  C        -1.4805567451       11.9454504956       30.1554483521
  C        -1.4056970422       13.3273541330       30.1985286148
  H         6.9992213968       13.9725312353       22.4641673569
  H         5.9218295754       12.7963021157       23.1665792954
  C         5.1696599356       13.3517795664       21.2818747088
  S         2.1497757423        5.5350816249       19.6962310383
  N         2.6132490451        6.0983231407       18.2248620265
  C         3.1305228707        8.3494216497       17.2865437810
  H         3.5680820009       10.5145871445       16.9395425887
  H         0.4381903755        8.3901750051       28.4354371917
  H        -0.4060815415        8.9499921576       29.8934523842
  C         1.4957268024        9.9763610433       29.3380364036
  H        -2.0363734060        8.5715590285       27.2787183495
  H        -2.3982439576        8.9276667452       29.0264097205
  C        -3.3864198852       10.0874070943       27.6316256512
  H        -1.7008875352       11.3025514580       30.9733117255
  C        -1.7131460688       14.2346432862       31.3726054084
  H         4.0985806436       13.5419699982       21.4273181661
  H         5.3262624324       12.3113384183       21.1005978816
  C         5.6083688679       14.2186591335       20.0880042334
  C         3.4767205301        7.7378487547       16.0129936684
  H         1.7217664883       10.7068754592       28.5872155287
  H         1.5545865650       10.5952516411       30.2657317725
  C         2.6293131934        9.0408933220       29.4705532788
  H        -3.2501612292       10.6680129065       26.6822710166
  H        -3.6549850503       10.7080420793       28.5404930259
  C        -4.5529506063        9.1802106252       27.2487473447
  C        -1.7182604752       15.6555124522       31.4520289566
  C        -1.8502823799       13.5550140242       32.7038533483
  H         4.7222507723       14.2128267113       19.4716462574
  H         5.6875031864       15.1989939458       20.5844008634
  C         6.9081434274       13.7141706198       19.3219705343
  H         3.3131189481        6.6586285099       15.9645107379
  C         3.8121418813        8.2479371790       14.7872416002
  H         2.7053076998        8.3882562878       28.5789802052
  H         2.4091899426        8.3235300160       30.2049202415
  C         4.0315254387        9.7662404060       29.7310374446
  H        -4.1704304906        8.7283652330       26.2899819985
  H        -4.6069392169        8.3937596963       28.0572287268
  C        -5.9175349941        9.8512388367       26.9721994581
  N        -1.4539247170       16.5369207822       30.4369781187
  C        -1.9432804414       16.3140799906       32.6946034094
  C        -2.0695541397       14.2213929892       33.8996471217
  H        -1.7819755870       12.5226435590       32.8126771279
  H         6.8740969360       14.2275506045       18.3590096261
  H         7.7812049785       13.9545815803       19.9177077468
  H         6.8211067327       12.6203549072       19.1364816197
  S         4.0156493021        9.9245810179       14.3347576585
  C         3.8212635772        7.3455852732       13.6325363905
  H         4.4041822392       10.3979990890       28.8895669961
  H         3.8785078812       10.3696282362       30.6101991456
  C         5.1155526871        8.7846113402       30.0397780256
  H        -5.9996310155       10.7964268659       27.5328878841
  H        -6.6941703668        9.2496143947       27.3564621702
  C        -6.0671708579       10.1108978562       25.4746399681
  S        -1.4958031389       18.0475536355       31.0385186149
  N        -1.8013687772       17.6995555420       32.5630669738
  C        -2.2348972672       15.6522923139       33.9190581262
  H        -2.1494388440       13.6196403310       34.7525635826
  C         4.2915292390        9.3325138399       12.7313168081
  N         4.2023646493        7.9945205932       12.5271353652
  O         3.7408401560        6.1277007480       13.7644997700
  H         6.0269953330        9.3969987503       30.1918878759
  H         5.2954042351        8.1490943088       29.1924082557
  C         4.9652542949        7.9718155683       31.3399870747
  H        -5.2058504399       10.6726982456       24.9959240550
  H        -6.0035474695        9.0873159137       25.0507843611
  C        -7.3966482446       10.7717244306       25.1659550780
  C        -2.6065589840       16.3345815840       35.0652856651
  S         4.6579487808       10.4540456387       11.4527743625
  C         4.3922796266        7.2015471378       11.3278540370
  H         5.6200869432        8.3785084596       32.1169812451
  H         3.9834559876        8.0112797269       31.7559467123
  C         5.4155013294        6.5149288605       31.1660035043
  H        -7.3708507934       11.3695024655       24.2759108438
  H        -7.6104049109       11.4546880104       25.9431978514
  C        -8.5441003344        9.8148973257       24.9525120207
  H        -2.5170187032       17.3707790333       34.9075429261
  C        -3.0997642266       15.9665689384       36.2953102349
  H         5.0365090338        7.8170135069       10.7069251339
  H         4.9242507789        6.2525867606       11.4234420613
  C         3.0587132852        6.8263410838       10.6817513108
  H         5.0777421616        6.0824661054       30.2636758198
  H         4.8436503813        5.9539118669       31.8397201774
  C         6.9302648964        6.3744169126       31.4001065243
  H        -9.1480243127       10.1855776695       24.1891144671
  H        -8.2172266038        8.8639001498       24.6408303204
  C        -9.3313855924        9.6054666529       26.2420877227
  S        -3.7199548647       14.4092459152       36.8747074989
  C        -3.0087514455       17.0613773326       37.3258996753
  H         2.4417992818        6.1966188611       11.4189717184
  H         2.4894339387        7.7018280355       10.5687763952
  H         3.2402223384        6.4070092163        9.6937748908
  H         7.0916914124        6.4989231253       32.4702201592
  H         7.5779979206        6.9434702786       30.7357955452
  H         7.0818648035        5.3433251409       31.2595542535
  H        -8.7523119724        9.0763209388       26.9824364807
  H       -10.2152170981        9.0421848247       26.0350119647
  H        -9.6039136380       10.6112199324       26.5861854679
  C        -3.8710482541       15.3132252954       38.3644948543
  N        -3.6160795110       16.6038262310       38.4443656138
  O        -2.6451523283       18.2068891313       37.1800169383
  S        -4.4777886738       14.5046122451       39.8190230768
  C        -3.7209252510       17.4245784613       39.6073930242
  H        -4.1027070579       18.3181611234       39.2409665630
  H        -4.4629449501       17.0429581603       40.3275566625
  C        -2.3845135706       17.5479569058       40.3306306752
  H        -2.3551544420       16.8852662155       41.1764585743
  H        -1.6014425791       17.2325939073       39.7043433069
  H        -2.1235671011       18.4306999634       40.8935429844
