352
i=
  H         3.0720308562        1.0777233031       11.9952137985
  C         3.4974466818        2.0126639807       12.3374297354
  H         4.5996541526        1.8522850813       12.3706368882
  C         3.2098295738        3.1422040463       11.3503999322
  C         3.0337608263        2.2005489937       13.8140547514
  C         4.2754283214        3.1372503684       10.2651709756
  H         3.1605400790        4.1033691984       11.7145741838
  H         2.2186228796        2.9585920435       10.9412261624
  H         3.8674758729        2.4253422731       14.4328700033
  H         2.6270278884        1.2857848261       14.1609621924
  H         2.3536365902        3.0988620062       13.9643061004
  C         4.5383070204        1.8688039289        9.5285283579
  H         3.9556717963        3.8965567467        9.5016574171
  H         5.2666891754        3.3366285392       10.7067015526
  C         5.2912957532        2.0697723530        8.1404701522
  H         3.5757025100        1.3606390155        9.4267402952
  H         5.1844336925        1.1874803008       10.1022571558
  C         6.6272545931        2.9021970551        8.3266835973
  H         4.6154058270        2.5756320425        7.4277915964
  H         5.3557207292        1.0836612144        7.7099675472
  C         7.7488432821        2.0576678024        9.0780663063
  H         6.9739210959        3.2910710724        7.4118713547
  H         6.3479195260        3.8641023967        8.8035566900
  C         9.0481748551        2.8417548436        9.2608015281
  H         8.0305001452        1.1390736720        8.5031651130
  H         7.4704982075        1.8486650871       10.1095119953
  C         8.9256228604        4.1844874126        9.9979307974
  C         9.6014448295        3.5560723843        8.0269901590
  C        10.2886751322        2.0300494414        9.7735663700
  C         9.1642930851        5.2948750752        9.1813849677
  C         8.4993915138        4.6334983152       11.2022389523
  C         9.6136965249        4.8743655641        7.9513807444
  C        10.0504645341        2.9153660192        6.8591332428
  H        10.0140737108        1.6076238500       10.6853999460
  H        10.4901467867        1.3038507917        9.0086246070
  C        11.6028636003        2.7727104197       10.0085266460
  S         8.7870301851        6.8150394969        9.8569075643
  C         8.3386883628        5.9770028373       11.2947275422
  H         8.3552070318        3.9088541950       11.9949598397
  C         9.9919741066        5.4881398508        6.8159625757
  H        10.1036383533        1.8285949724        6.8298634618
  C        10.5340701797        3.5272103221        5.7481773503
  H        11.3823316564        3.8080110462       10.3073606224
  H        12.2528808957        2.7664086156        9.1625335492
  C        12.3669195278        2.2033778497       11.1321625687
  C         7.9955178299        6.7024110099       12.5659341570
  C        10.4612518275        4.8809882499        5.6695040727
  H        10.0707153856        6.5644616878        6.6724347768
  C        10.9320714395        3.1295468095        4.5249584020
  H        13.4554711396        2.2189043671       10.9498769570
  H        12.1267093307        1.1516260616       11.2023988804
  C        12.0681496444        2.8811069743       12.4209067637
  C         7.9511657932        8.1224348666       12.7633295854
  C         7.4394394219        5.9063908022       13.6528737139
  C        10.9078524169        5.5748614904        4.4398067967
  C        11.2078602401        4.2302382824        3.7358050396
  S        11.0994918785        1.5113169538        3.8039579882
  H        12.8113996928        3.7567636459       12.5878197227
  H        11.1202504752        3.4074331267       12.4509432868
  C        12.2451059734        1.8515900604       13.6522766452
  N         8.1577884313        9.0759778947       11.7921917697
  C         7.5325629028        8.7106218027       13.9078672379
  C         7.0496885655        6.4985687877       14.8139184148
  H         7.6138240134        4.8434097184       13.6882040218
  C        12.2624500350        6.2996822093        4.6882154775
  C         9.6992312429        6.2814559463        3.8856173653
  C        11.6230584190        3.7334047361        2.4695048507
  C        11.5465703333        2.3241243310        2.3375089812
  H        13.1529782357        1.2467021713       13.4291071329
  H        11.4370407465        1.1463614457       13.6190296826
  C        12.5412043954        2.5098908178       15.0127129507
  S         8.0002961678       10.5708242767       12.4360344309
  N         7.6218048363       10.0772250239       13.8968345075
  C         7.0496415564        7.9970923593       15.0602129272
  H         6.8960697071        5.8657273620       15.6281275882
  H        12.0247769903        7.0827948173        5.4322124217
  H        12.4923100550        6.8714858815        3.7969258320
  C        13.4405603465        5.4191850158        5.2785222655
  H         9.2140870327        6.8284015727        4.6404017471
  H         9.9748321783        6.9803966895        3.0633585623
  C         8.5575817561        5.3984779559        3.2246656140
  H        11.9663830221        4.3990008657        1.7121812200
  C        11.8563613188        1.5093718721        1.1055157504
  H        13.4939245761        3.0174391812       14.8691032719
  H        11.8704298806        3.3534962458       15.1620549082
  C        12.5784691792        1.6304481528       16.2272340888
  C         6.8997861470        8.6179743664       16.3133791951
  H        13.0478665278        5.0849080403        6.2185689216
  H        13.6038434719        4.4069015370        4.9069538779
  C        14.7360078666        6.2087339825        5.5399274739
  H         8.2173452380        4.6267929792        3.8645028651
  H         9.0186253992        4.8342358654        2.4209652419
  C         7.4258666337        6.2798312598        2.6653831561
  C        11.7998689481        0.1423518177        0.9427777679
  C        12.2970757131        2.2627283354       -0.0697425597
  H        13.2436884476        0.7167794214       16.0844800195
  H        11.6056129546        1.1113041244       16.4772565006
  C        13.1651979664        2.3577261554       17.4278031324
  H         7.1274117359        9.6882356917       16.2650059641
  C         6.7407299887        8.1610693396       17.6132298073
  H        14.4455986663        7.2056718891        5.8757247513
  H        15.2619840604        6.3531704883        4.6347861355
  C        15.5924821987        5.4862649165        6.5716046181
  H         7.0118620411        6.8166490034        3.5471753000
  H         7.8619239754        7.0046925013        2.0196424363
  C         6.3857448779        5.4720295895        1.8898258755
  N        11.5320962027       -0.7331015934        1.9390441463
  C        12.0487059210       -0.5112773431       -0.2303175187
  C        12.5116516914        1.6401164530       -1.2890296990
  H        12.2949495802        3.3604144261       -0.0453723777
  H        12.7740564114        1.8319850978       18.2894221954
  H        12.8442949859        3.3615133019       17.4501120218
  H        14.2874067033        2.2111551636       17.4813084458
  S         6.3318252929        6.6388721259       18.1891831224
  C         6.7403299865        9.2387886617       18.5482644243
  H        14.9969286675        5.2611499399        7.3566340548
  H        15.9331922987        4.5832217298        6.0220235163
  C        16.7934228171        6.2966811368        7.1327152689
  H         5.7503805266        4.9818556656        2.5764461487
  H         6.8474941948        4.6872707664        1.3458672083
  C         5.4923041993        6.2835861239        0.9739438916
  S        11.5181348071       -2.2707006128        1.3733392614
  N        11.9614404137       -1.8635335642       -0.1314148679
  C        12.3525583249        0.1750980171       -1.4040321721
  H        12.6968766954        2.2431479304       -2.1092888885
  C         6.2039455892        7.4540011766       19.7333078415
  N         6.3649244021        8.7341412215       19.7341013689
  O         6.9261410264       10.4029309187       18.2791371355
  H        17.1738286489        6.8462527172        6.3174293812
  H        16.6247238461        7.0187057313        7.9844565426
  C        18.0249498554        5.4438940512        7.3965046672
  H         6.0939788291        6.6849921733        0.0648954418
  H         4.6708227002        5.6624936469        0.6889775000
  C         4.7926574495        7.4902028169        1.6107111635
  C        12.4362264228       -0.5110016177       -2.6454259619
  S         5.6021111610        6.7160298116       21.2346111161
  C         6.4962584593        9.6524323644       20.8980192835
  H        17.9822136167        4.9156069832        8.3752059279
  H        18.0320379026        4.5838420237        6.6882938640
  C        19.3327593549        6.2249978381        7.5255128990
  H         5.4790763151        7.9756587053        2.2165989850
  H         4.0148226799        7.1308034943        2.3167824751
  C         4.2880541098        8.6529784862        0.6972480099
  H        12.3291320758       -1.4983872022       -2.5727973940
  C        12.9469922054       -0.2223263924       -3.9028604420
  H         5.8742829220        9.3146291597       21.7466588475
  H         6.0239862992       10.5738489815       20.7169664601
  C         7.9354195109        9.7880742448       21.2818490314
  H        19.9863020100        5.8095878487        8.2582656584
  H        19.1046767498        7.2137236487        7.9520435607
  C        19.9938777002        6.3961029191        6.1897231640
  H         5.1557587739        9.1338783179        0.3480051607
  H         3.7642438562        8.3189332602       -0.1976456035
  C         3.3235409913        9.5883958824        1.3707394156
  S        13.5537895969        1.3464226586       -4.3978915156
  C        13.0088977836       -1.2796745484       -4.8931792162
  H         8.1231356138        9.1057574178       22.1682165426
  H         8.1918700604       10.7999400501       21.6409645678
  H         8.6009033689        9.4432026382       20.5060747281
  H        20.1177988428        5.4574854730        5.7009266480
  H        19.3870406753        7.0594996731        5.5776676549
  H        20.8902787641        6.8532860667        6.2047649437
  H         3.8872598783       10.3821934535        1.7778765732
  H         2.5787568959        9.9609090563        0.6500946744
  H         2.7718980007        9.1754758878        2.2026712237
  C        13.9775049430        0.5290590093       -5.9277045752
  N        13.6252654079       -0.7557489294       -5.9770774896
  O        12.6040184188       -2.4593882601       -4.7271365950
  S        14.7619989442        1.1640015391       -7.3810169362
  C        13.9643488848       -1.6136790701       -7.0405924490
  H        13.8061403996       -2.6009972591       -6.7113858782
  H        14.9980576081       -1.4794709723       -7.4935114201
  C        12.9269905571       -1.4995418505       -8.0673343024
  H        12.5149147206       -2.4521118818       -8.4196622174
  H        13.4390085307       -1.0886040329       -8.9338658041
  H        12.1054198333       -0.8652417749       -7.8173873473
  H        -0.3228138863       13.1674325903       17.0282414327
  C        -0.9013107508       14.0511919206       16.6965953762
  H        -0.1782096819       14.8180006894       16.3638202592
  C        -1.5253408709       14.8354433758       17.9168052530
  C        -2.0365300138       13.5815159279       15.7815025293
  C        -2.3052381337       13.8565885138       18.8913910683
  H        -0.7061973973       15.4539916777       18.3556579778
  H        -2.2058920806       15.6178332700       17.5130690232
  H        -2.8886547073       14.2444372507       15.9912669653
  H        -1.7852123581       13.3849088367       14.7732317561
  H        -2.5397346517       12.6374080282       16.1410849364
  C        -1.4082567636       13.2118965141       19.8920832338
  H        -2.7641885074       13.0062035768       18.3276514428
  H        -2.9538591890       14.5830042596       19.4437428788
  C        -1.8800243193       13.2359388779       21.3673168565
  H        -1.3257262762       12.2000537777       19.6252025762
  H        -0.3874256633       13.6089789199       19.7791801259
  C        -0.8226913638       12.6316091396       22.2488914209
  H        -2.7673896023       12.5915453513       21.4759677471
  H        -2.2128821814       14.2857273424       21.6673713316
  C         0.2674864906       13.6439444952       22.5383423070
  H        -1.1645871855       12.3083048665       23.2597599621
  H        -0.2322331195       11.8120653241       21.8314872081
  C         1.4975921354       13.0471471970       23.3535566050
  H         0.7568177091       13.9738853893       21.5459894668
  H        -0.1094764484       14.5254984154       23.0451351665
  C         2.0749816247       11.8163407520       22.6434960034
  C         1.0353676898       12.2434795323       24.5440268790
  C         2.5227459083       14.1794221347       23.6171045329
  C         1.8261121255       10.6806378263       23.3874030835
  C         2.6401576798       11.4986087831       21.3589709474
  C         1.2323465175       10.9345073005       24.5645539738
  C         0.5196704195       12.7789685059       25.6626571603
  H         2.5592902417       14.8579123276       22.7917119853
  H         2.1593933201       14.7478598268       24.5221414083
  C         3.9060347103       13.5698518994       23.9459439416
  S         2.2543719880        9.2367907980       22.5729126493
  C         2.6285508408       10.1575031793       21.1411397504
  H         2.8638209548       12.3083295825       20.7639307984
  C         0.7963192160       10.1494456651       25.6335961842
  H         0.4457221502       13.8797223970       25.6984687500
  C         0.2139488128       12.0870133104       26.7805343559
  H         4.3361259755       12.8588311975       23.2224573783
  H         3.7536603543       13.0393997544       24.8430056078
  C         5.0114089334       14.6394531052       24.3123712351
  C         2.9611012430        9.4796935433       19.8896090159
  C         0.2473588868       10.7259255217       26.7941211143
  H         0.9729487587        9.0781363359       25.5181309810
  C        -0.2762861659       12.3619035242       28.1026900654
  H         5.8064371832       14.1494804810       24.9430936182
  H         4.5680170354       15.4663741622       24.9338819517
  C         5.6984132198       15.2342462655       23.0736105157
  C         2.7437612658        8.0527956689       19.6423147212
  C         3.4092594353       10.3030600322       18.7560448428
  C        -0.0419316323        9.9742045785       28.0624142775
  C        -0.4707834796       11.2188112401       28.7941183403
  S        -0.6799982771       13.7411648946       28.9385249621
  H         6.4006935357       15.9984733670       23.4632983698
  H         4.9621650301       15.7633178501       22.4819789983
  C         6.5251108795       14.2778699494       22.1285719485
  N         2.2283092939        7.1271003539       20.5746881571
  C         2.9220063765        7.5254488973       18.3902500795
  C         3.5357060916        9.7538441584       17.4897280022
  H         3.7317119858       11.3096106352       18.9098361212
  C         1.2287950909        9.3907692095       28.6885877911
  C        -1.1743885443        8.9595499430       28.0161591966
  C        -0.9703129393       11.4471432117       30.0747518115
  C        -1.0870518301       12.7926512960       30.3350389358
  H         7.5873356448       14.5395309003       22.1613166114
  H         6.5925564836       13.2816095819       22.5663526160
  C         5.9083861484       14.2826886530       20.7597637236
  S         2.1220184695        5.7269017736       19.8432684529
  N         2.5135859810        6.1843607729       18.2601685535
  C         3.2739027875        8.2963972239       17.2459014690
  H         3.8454292172       10.3974643274       16.6770228312
  H         1.7439171571        8.6729321380       28.0752515993
  H         0.9040429674        8.7461502760       29.5944138179
  C         2.2130810763       10.3995730545       29.2693683767
  H        -0.9734520991        8.1076195341       27.3309758505
  H        -1.3329434111        8.5697680248       29.0179185926
  C        -2.4109142242        9.6309661712       27.4668983854
  H        -1.1928605687       10.6127243470       30.6768360182
  C        -1.4608596738       13.4878072505       31.6660502039
  H         5.8070263216       15.3144364717       20.4106788325
  H         4.9358560594       13.9176555330       20.8600078832
  C         6.6954702867       13.3329952199       19.8556598457
  C         3.4587047670        7.6073261835       16.0328477568
  H         2.3522522577       11.2742311575       28.6438914083
  H         1.8011638741       10.8193914409       30.1945811506
  C         3.5323117867        9.7866462313       29.6310156330
  H        -2.2127214182       10.0575568554       26.5119360861
  H        -2.8157919688       10.4179994350       28.1782743086
  C        -3.5430442313        8.6977873516       27.1730351183
  C        -1.5681586285       14.8829067436       31.8924501539
  C        -1.6825322351       12.6454658046       32.9142152282
  H         7.6203511854       12.9525063286       20.3405245775
  H         6.0572183626       12.5133006627       19.8161966804
  C         7.0406127922       13.9572114153       18.5096063545
  H         3.5597405400        6.5495004185       16.1631832985
  C         3.8315589680        8.1266017756       14.8369626827
  H         3.9225528357        9.5351474226       28.6720988495
  H         3.4589328025        8.8584430307       30.2321483244
  C         4.4482491812       10.7065596717       30.3621612069
  H        -3.4334843584        8.3126176356       26.1447476034
  H        -3.5339659360        7.8286686775       27.8364458324
  C        -4.9348065766        9.3779824587       27.0385064172
  N        -1.3493161534       15.8863720558       30.9241050783
  C        -1.7955720534       15.4322673788       33.1552788937
  C        -1.9417430244       13.1700280753       34.1578141705
  H        -1.5699575913       11.5814104063       32.7622580745
  H         7.8145554779       14.6396914016       18.5955027395
  H         7.1693055033       13.2591845021       17.6652092737
  H         6.1867146693       14.6785038378       18.2098064699
  S         3.9707312040        9.8201976180       14.2718785610
  C         4.1000123803        7.1655956436       13.7802926777
  H         4.3922213875       11.6398126973       29.8424805472
  H         4.0569457908       10.9515090979       31.3718017278
  C         5.8451341715       10.1272992985       30.5295572918
  H        -5.0186333713       10.1146093074       27.7895488992
  H        -5.7083042227        8.6570444925       27.0753284635
  C        -5.0918131547       10.1588815254       25.7148257637
  S        -1.5674890006       17.3486278353       31.6108257565
  N        -1.8057423653       16.8461381931       33.1072852018
  C        -1.9291454301       14.6686004103       34.3497567710
  H        -1.9810054518       12.5534431725       35.0684735894
  C         4.5808747997        9.1015539067       12.7651357628
  N         4.3643503599        7.8150473496       12.5960703142
  O         3.7639779371        5.9784815587       13.8141914979
  H         6.5538251286       10.9037508116       30.8675454758
  H         6.1941701782        9.8944562420       29.4943539935
  C         5.8879044599        8.8506299618       31.3829913984
  H        -4.4484160753       11.0883774872       25.7334398236
  H        -4.8704911533        9.6390301542       24.7947887036
  C        -6.4841151111       10.7485325944       25.5412897766
  C        -2.1147786356       15.4206707344       35.5315817969
  S         4.7242022658        9.9418280459       11.1933438192
  C         4.4603468562        7.1016463470       11.2739967334
  H         6.4759819019        9.0637627293       32.2400675425
  H         4.8987091925        8.5443006928       31.7766298365
  C         6.4055425156        7.7594705812       30.4255363395
  H        -6.4811429224       11.5097314261       24.7093002202
  H        -6.6546555493       11.2077171800       26.4715281332
  C        -7.5321097808        9.7532079875       25.1994994971
  H        -1.6387679088       16.4145989655       35.6135575645
  C        -2.8970155219       15.1415268472       36.6306905968
  H         5.3837851480        7.4577255384       10.7950615119
  H         4.5691888449        6.0671357332       11.4810130299
  C         3.1641337999        7.1708075414       10.4070553133
  H         7.2848834762        8.0665427016       29.8245413987
  H         5.6440896667        7.5737848362       29.6222039936
  C         6.8718897895        6.6012562328       31.2544608838
  H        -7.2650966315        9.2898909383       24.2617062374
  H        -7.7823886671        9.0786245690       25.9725126171
  C        -8.8151418786       10.5923635797       24.9565963546
  S        -3.7084958888       13.6949212438       37.0229955959
  C        -2.9637637155       16.2231219892       37.6582181168
  H         3.0582775333        6.1477546634        9.9515327404
  H         2.2830058576        7.4038640986       11.0148689795
  H         3.0858299594        7.9128736242        9.5875563052
  H         5.9490435765        6.1322111443       31.6154233273
  H         7.3272270278        7.0051680473       32.2163844601
  H         7.5012085146        5.9472844496       30.7363813563
  H        -8.6687507898       11.1480499167       24.0547712182
  H        -9.0108860916       11.1904268003       25.8619656789
  H        -9.6522638651        9.9531070026       24.7074223690
  C        -4.1038162022       14.5343132148       38.5719275211
  N        -3.7160191957       15.8222166681       38.6810865693
  O        -2.4949046159       17.3500212234       37.5978800106
  S        -5.2886381791       13.8649355039       39.8010921882
  C        -4.0002191529       16.6411187282       39.8204116689
  H        -4.2735186304       17.6473536433       39.4104816502
  H        -4.8954048306       16.3906739830       40.3191219336
  C        -2.8206253725       16.3785952925       40.7879893739
  H        -2.8574458611       16.8556280012       41.7852405196
  H        -2.5509830206       15.3051449201       40.8755162322
  H        -2.0669401395       16.9785575515       40.3946308047
