352
i=
  H         3.1655856182        0.7842027233       13.3755850659
  C         3.7084062952        1.6146482118       12.9642655401
  H         4.7718042809        1.3270318748       12.8851378896
  C         2.9672933743        2.0646376565       11.6707469153
  C         3.6490472592        2.7071383932       13.9116516486
  C         3.7743312824        2.4776222870       10.4377267090
  H         2.3805287721        2.8871137979       11.9769055754
  H         2.2820981981        1.3103594634       11.3430192488
  H         2.6676986539        3.1229694428       14.0595285285
  H         4.0762075024        3.6418211995       13.5430738869
  H         4.1459352142        2.3882194258       14.8310292596
  C         4.5640427855        1.2297432576        9.9148160956
  H         3.0417319210        2.9147073269        9.8010325075
  H         4.4748190781        3.2831657002       10.6095677840
  C         5.3262046542        1.6199775499        8.6347589345
  H         3.9918680351        0.3578055909        9.7607763971
  H         5.2654545868        0.8784939964       10.6315645233
  C         6.5294611010        2.5250802551        8.8276364590
  H         4.6388062468        2.0767128583        7.9764288659
  H         5.6059881171        0.8532203116        7.9584415897
  C         7.7947162812        1.6603339332        9.1921137259
  H         6.7061318381        3.2211213385        8.0321481190
  H         6.2066263094        3.2252863597        9.5900196945
  C         9.0460221185        2.5679812779        9.4519988447
  H         8.0751648781        0.8738867899        8.5596644881
  H         7.5043452374        1.1703645966       10.1023775753
  C         8.7005796862        3.9040511770       10.0991896621
  C         9.5213688089        3.1980500073        8.1048530266
  C        10.1088213228        1.9017290494       10.3263560803
  C         9.0210083240        4.9537904300        9.2751532874
  C         8.2016977827        4.2740643336       11.3601065959
  C         9.5443005196        4.5568428230        8.0456596203
  C         9.9728737249        2.5082584504        6.9697200150
  H         9.7069827136        1.8154524433       11.3113924974
  H        10.3334304356        0.8911600474        9.9312360540
  C        11.4600798766        2.6616428337       10.4453914006
  S         8.6490611753        6.4645150961        9.9607745111
  C         8.0235394240        5.6974067999       11.3806366237
  H         7.9943095285        3.5575458491       12.1585942024
  C         9.9583303157        5.1863724655        6.8943346276
  H         9.9156015929        1.4953894909        7.0265893046
  C        10.2471228914        3.1759176067        5.7710981808
  H        11.2739699234        3.6915988115       10.5790009584
  H        12.0314912908        2.6956817576        9.4568827017
  C        12.4779707786        2.1633997307       11.5165287137
  C         7.5304339453        6.4663493572       12.5406178616
  C        10.2763159422        4.5353055616        5.7061555870
  H         9.9170569332        6.2641171534        6.8521063131
  C        10.6980264621        2.8147338143        4.5477169201
  H        13.4349030192        2.5562872444       11.5733436846
  H        12.7791496589        1.1317705469       11.1687853398
  C        12.0220171452        2.0721234294       12.9474406097
  C         7.7023556613        7.8228492782       12.8095371736
  C         6.8421685442        5.6638912763       13.5968214665
  C        10.7017842335        5.2667080461        4.5678823799
  C        10.9848643474        3.9356751553        3.7741281606
  S        10.9882467154        1.3550049818        3.7319049034
  H        11.3825606700        2.9534273156       13.3058824668
  H        11.3924209079        1.1249477408       13.0559334120
  C        13.2370889747        1.9193145465       13.8840589309
  N         8.1846699022        8.7485699685       11.9229869009
  C         7.3826426198        8.3897114752       14.0142995376
  C         6.6373933962        6.2667331740       14.8621496891
  H         6.6325182833        4.5804228427       13.3918054633
  C        12.0047902276        6.0526003530        4.8392636242
  C         9.6584270257        6.1375622885        3.8543313497
  C        11.4482886352        3.6068008297        2.4774122964
  C        11.4662059696        2.2243882111        2.3034238948
  H        13.2488436731        2.8757152040       14.3068932084
  H        14.1620154258        1.6047229404       13.3659127638
  C        12.9565869495        0.9370959304       15.0173568239
  S         7.9703428740       10.2372146890       12.5039194452
  N         7.5226149945        9.7973632413       13.9962192360
  C         7.0561010430        7.6574834398       15.1498110887
  H         6.2438711627        5.6378817089       15.6419739633
  H        11.9181959861        6.6945641931        5.7064446272
  H        12.3169903142        6.6657832990        4.0128809918
  C        13.2099080157        5.1773136049        5.1965652248
  H         9.2195816354        6.8819811117        4.5164493414
  H        10.1359258498        6.6334544270        3.0286270547
  C         8.4632272962        5.2205305086        3.4536596029
  H        11.5793874647        4.4024515575        1.8003357261
  C        11.7790415197        1.5528538481        0.9918963809
  H        12.4652520294        0.0928325306       14.6583441008
  H        13.8521945957        0.7105098591       15.5476408512
  C        12.0074458894        1.6044878033       16.1334395970
  C         6.8485484460        8.3471717679       16.3907744980
  H        13.0685094369        4.5321001020        6.0247780298
  H        13.4789626491        4.5845487862        4.3065940984
  C        14.4370831313        6.0860073597        5.4241452502
  H         7.8798574322        4.8920297056        4.4094707737
  H         8.6992650303        4.2946734205        2.9462132931
  C         7.5145800028        5.9390578422        2.5268452877
  C        11.8622971468        0.1248358877        0.8757451929
  C        11.5772340092        2.3047320115       -0.2411908953
  H        11.2698602521        0.8764828495       16.5453904683
  H        11.3148406041        2.3746908254       15.7891028908
  C        12.8217393145        2.2448938698       17.2486010250
  H         7.0938534982        9.3801122216       16.4672573148
  C         6.5209899371        7.9452275991       17.6508576182
  H        13.9936331451        6.8472111039        6.0790640991
  H        14.7412653800        6.4849516436        4.4614056184
  C        15.4903113643        5.3037144050        6.1959924054
  H         8.1957526973        6.5804452548        1.9693574282
  H         7.1856351480        5.1654539053        1.8657369677
  C         6.3279409505        6.6438718110        3.1727450184
  N        11.6720694063       -0.7858134111        1.9104690989
  C        12.1977904128       -0.4659934867       -0.3402750720
  C        11.9302018525        1.7088887129       -1.4896654719
  H        11.2424148042        3.3043036321       -0.3628568887
  H        12.0869290169        2.7947789948       17.9551581456
  H        13.4238635517        3.0088827994       16.8992772897
  H        13.3180028899        1.5267624254       17.8454503594
  S         6.3773492948        6.3352985239       18.1398668997
  C         6.2908103484        8.9223348987       18.7435095697
  H        14.9454083947        4.9147929615        7.0907474741
  H        15.7528832658        4.4278066026        5.5986589358
  C        16.7049020687        6.1250316529        6.5938972207
  H         6.7805486076        7.2478374165        3.9436077062
  H         5.7919175658        5.8511201120        3.6576284145
  C         5.4175261673        7.4585123373        2.2731582807
  S        11.8387114146       -2.2497567193        1.3301621695
  N        12.2766662318       -1.8491375953       -0.1718507374
  C        12.3365275692        0.2368004404       -1.5347898460
  H        11.9738193686        2.2948243531       -2.3437476595
  C         6.0976643711        6.9928838006       19.7459191016
  N         6.0406917179        8.3254953490       19.8630477451
  O         6.4363083744       10.1335321783       18.5230715552
  H        17.2079339724        6.5994361761        5.7266257987
  H        16.3558472893        6.9719939139        7.1798866532
  C        17.5691921225        5.2558465271        7.4498856958
  H         6.0910223000        7.9665341110        1.6058336639
  H         5.0533573138        6.7152381926        1.6213130825
  C         4.4008233625        8.3726559822        2.8441857559
  C        12.7711557310       -0.5129598369       -2.6537517956
  S         5.6877868545        5.9644236051       21.0871790689
  C         5.7208715018        8.9388716925       21.1726643277
  H        17.0098343521        4.8619206942        8.3009145723
  H        17.8006116406        4.3372331538        6.9077112919
  C        18.8277275563        5.9171974405        7.8258239837
  H         4.7364121823        8.5797181443        3.8157324419
  H         3.5394839571        7.8197757695        3.0910112424
  C         4.1715314775        9.5923346860        1.9523485944
  H        12.6299603001       -1.6091951759       -2.5607488466
  C        13.2792439250       -0.0451792589       -3.8350532307
  H         4.7573157618        8.7115494924       21.4949370661
  H         5.6005831201        9.9717911698       21.0253739348
  C         6.7689290724        8.6654005449       22.1979931767
  H        19.0613404133        5.5809091061        8.8220822669
  H        18.6272858563        6.9421850270        7.7033635677
  C        19.9373761735        5.6432822618        6.8734712570
  H         3.4902782668       10.2961919758        2.4053632590
  H         5.0738031189       10.0898304454        1.8825422590
  C         3.6984316222        9.2233852241        0.5378292035
  S        13.8220193955        1.4795872836       -4.3768153227
  C        13.4152349881       -1.1292980461       -4.8684220901
  H         6.2287399737        8.3603921698       23.0835060220
  H         7.2368087316        9.6354112503       22.4433106611
  H         7.4796118542        8.0025532196       21.8002185678
  H        19.8186037754        6.2784295396        5.9422404680
  H        20.8858496131        5.9067706349        7.2555513000
  H        20.0814521926        4.6413651838        6.6316425451
  H         3.6469897928       10.1135247223       -0.1417116397
  H         4.2803436465        8.4575188580        0.1047233868
  H         2.6643542552        8.8716849432        0.5150982973
  C        14.2181075378        0.7212565556       -5.9104124423
  N        13.9067267395       -0.6162841619       -5.9694538041
  O        13.0278431930       -2.2722761260       -4.7632532278
  S        14.8980802573        1.4141943110       -7.4146192648
  C        13.9457566770       -1.3716779215       -7.2253618292
  H        13.9678071157       -2.4913791648       -6.9836346596
  H        14.8098742570       -1.0913457146       -7.7920298589
  C        12.6387629330       -1.1367452883       -7.9792499163
  H        12.3496341024       -2.0808384454       -8.3348688599
  H        12.7067583521       -0.4616262406       -8.8131005525
  H        11.7950527701       -0.8510845416       -7.3718920288
  H        -3.7086677425       14.7273205586       16.3973867561
  C        -3.1069580274       13.8560516786       16.4974157453
  H        -3.7699179381       13.1411075698       17.0457867220
  C        -1.8749009585       13.9702090069       17.4192869972
  C        -2.7558755572       13.2626836859       15.0628202669
  C        -2.1351806722       14.2832671113       18.8856031397
  H        -1.4471110073       12.9818015026       17.3083153409
  H        -1.2028020049       14.7037612017       16.9139527392
  H        -3.6612779546       12.8209937466       14.5961292580
  H        -2.3095071378       13.9464616387       14.3674810258
  H        -2.0583942536       12.3692429939       15.1460995373
  C        -1.8323197038       13.1221902988       19.8236075467
  H        -3.1283042137       14.6959714948       19.0213181778
  H        -1.5502116462       15.0458765201       19.2385923417
  C        -2.3492549427       13.3124501437       21.2312611810
  H        -2.3756100672       12.2679393288       19.4014486937
  H        -0.7780911750       12.8179798511       19.7568952284
  C        -1.3882918704       12.6487481877       22.2357709030
  H        -3.3719318242       12.8689464872       21.2043747961
  H        -2.4876235396       14.4205968530       21.3874232542
  C        -0.1954969852       13.5813423665       22.4994325220
  H        -1.9456199682       12.4604264039       23.1944553323
  H        -1.1265143543       11.6212035000       21.9804956135
  C         0.8512545770       12.9599842252       23.3842507688
  H         0.1868180479       13.8260952696       21.5200426530
  H        -0.6268602302       14.4834883180       22.9331625000
  C         1.2704762367       11.7097637085       22.6665085218
  C         0.3575259008       12.2441476585       24.5925311501
  C         1.9890654380       13.8810636600       23.7689342360
  C         1.0149338393       10.5348007851       23.4582710332
  C         1.8429735803       11.3863403176       21.4529045491
  C         0.4060991358       10.8861111635       24.6456394096
  C        -0.1179864334       12.8369934392       25.7259924947
  H         2.3014305067       14.6275605262       23.0497296297
  H         1.7027978995       14.5384358435       24.5503748795
  C         3.2238606906       13.1865806612       24.3856581717
  S         1.3715633732        9.0857647090       22.6494549623
  C         1.8687461950       10.0208984266       21.2602865316
  H         1.9646551485       12.1660829840       20.7537604560
  C         0.0355900320       10.2387786717       25.8040260147
  H        -0.3283686044       13.8736203151       25.7885825267
  C        -0.4244499742       12.2135472016       26.9123483580
  H         3.2134161599       12.0888856309       24.1748353378
  H         2.9550741713       13.1885255250       25.4367770452
  C         4.5931884753       13.9943537398       24.2663261300
  C         2.3502868402        9.2891383076       19.9842215694
  C        -0.4364122166       10.8762531086       26.9559004312
  H        -0.0528399386        9.2360630903       25.7198575034
  C        -0.7724854863       12.6173592947       28.1997351029
  H         5.3248769038       13.4610633989       24.8235441489
  H         4.6156952673       14.9564481716       24.8192430825
  C         5.1693105214       14.0778896903       22.7853921125
  C         2.3456069968        7.9402964742       19.5962239489
  C         2.8442704790       10.2332017854       18.8881880200
  C        -0.8447049567       10.1633068585       28.2545599810
  C        -1.0217084160       11.5023373071       28.9973684748
  S        -1.1637657730       14.0855682935       28.9497164064
  H         5.9889144156       14.7699639120       22.6817209222
  H         4.5121495331       14.3510849131       22.0231562505
  C         5.8265366867       12.7548426605       22.3018906071
  N         1.9846935444        6.8976765136       20.4459091163
  C         2.7658079665        7.4502817189       18.3862813123
  C         3.3384350157        9.6953072718       17.7224247730
  H         3.1610539300       11.2126866499       18.9905577469
  C         0.1470973338        9.2496866451       28.8747760122
  C        -2.2356896754        9.4950322924       28.1545008069
  C        -1.4053620632       11.8942855366       30.2646834233
  C        -1.4801269480       13.2554209746       30.4435368766
  H         6.8322546225       12.8322764631       22.8272125147
  H         5.3858827864       11.8396535545       22.6921262361
  C         6.1635140281       12.6038319597       20.8407091491
  S         2.0286954630        5.5109517511       19.7318871013
  N         2.7273293205        6.0325341914       18.3556902113
  C         3.1369755098        8.2715985290       17.3043076519
  H         3.7396605322       10.3930786793       17.0689564380
  H         0.4501169059        8.4604240338       28.2223507794
  H        -0.2014970694        8.8410641740       29.7644268158
  C         1.4353240162       10.0253437925       29.3807056562
  H        -2.1229105159        8.6366949170       27.5017847971
  H        -2.5160960162        9.2250693696       29.1542710316
  C        -3.3453498465       10.4374916795       27.5351649021
  H        -1.6602367224       11.1023892029       30.9832164416
  C        -1.6975082470       13.9841506227       31.8000391196
  H         5.3380266449       12.0829463137       20.2780973873
  H         7.0521974660       11.9644841720       20.7361952312
  C         6.5279149150       13.9313823123       20.1154307822
  C         3.4636720673        7.6599579843       16.0645776110
  H         2.1186554461       10.5657262525       28.6880886534
  H         1.1289181725       10.6726501789       30.2239500309
  C         2.3854457025        9.0477312685       30.0872265009
  H        -2.9933853197       10.9586724089       26.6399003911
  H        -3.6655609235       11.1457695856       28.3055243924
  C        -4.5103609926        9.4704307656       27.1269598387
  C        -1.7854747392       15.3805864404       31.9513083557
  C        -1.9686967434       13.1696753556       33.0032766991
  H         5.8269051273       14.6504549254       20.3619097367
  H         7.5210483305       14.3689933943       20.5302932303
  C         6.8100663744       13.8421710768       18.6300111168
  H         3.0394659093        6.6587741491       16.0281858795
  C         3.7375237055        8.1402010975       14.7975762775
  H         2.5301949490        8.0788630903       29.5432622137
  H         1.8332572237        8.7046564234       30.9410774210
  C         3.6849170630        9.7101795442       30.6296834932
  H        -4.0260468394        8.6687616554       26.4901496378
  H        -4.9198878645        8.9204664328       28.0087225499
  C        -5.4825274710       10.3660655268       26.4343361517
  N        -1.6011682379       16.3135085665       30.9184714295
  C        -2.0892800968       16.0173592722       33.1171110959
  C        -2.3068731471       13.8300480898       34.2183288682
  H        -1.8634675252       12.0757463028       33.0493409653
  H         7.1448636596       14.8507841368       18.2973967047
  H         7.6266681070       13.1477422276       18.3817535793
  H         5.8984756113       13.5934764819       17.9982831402
  S         4.0683036670        9.7344750377       14.3744169504
  C         3.6999598720        7.1263902015       13.6597643495
  H         3.7204901436       10.5755205138       30.0283512269
  H         3.5231938134       10.1022212975       31.6134499666
  C         4.9900667271        8.9492657133       30.6423956449
  H        -5.0068815655       11.0133961617       25.7023169718
  H        -5.9065411590       11.0531604687       27.1204140405
  C        -6.5716202331        9.5584417270       25.6890637717
  S        -1.7800233809       17.8075299522       31.4857908521
  N        -2.0631653794       17.4165661777       33.0223427016
  C        -2.4267990957       15.3292948541       34.3194269962
  H        -2.5889856595       13.2109159749       35.1090709851
  C         4.2139901577        9.1163647141       12.7294066819
  N         4.0485041077        7.8131870662       12.5644424492
  O         3.5507456569        5.8891038183       13.8234373352
  H         5.7336028105        9.5768353823       31.2659297737
  H         5.4212210137        8.7584877578       29.6514984011
  C         4.8363010899        7.5785125506       31.3935449424
  H        -6.1104997566        8.8850664161       25.0211061942
  H        -7.1811729096        8.8912277817       26.3260674857
  C        -7.6575180128       10.4894286115       25.0802471823
  C        -2.6529195772       16.1075936137       35.5177192131
  S         4.8321990650       10.0498673006       11.4394291692
  C         4.1329898973        7.1992502103       11.2365973924
  H         5.2932516647        7.6984815570       32.4365443512
  H         3.7664303943        7.4081215721       31.5222255281
  C         5.3728761067        6.2905748297       30.6528624607
  H        -7.5116521550       10.7643139397       24.0382899432
  H        -7.6483188713       11.4375230783       25.6071349974
  C        -9.0926467524        9.9594768128       25.2562976744
  H        -2.5779670329       17.1500744108       35.4354771353
  C        -3.0207937548       15.8447789285       36.8173601306
  H         4.1864119015        7.8725544499       10.3697052217
  H         4.8880325237        6.4183316531       11.1175106342
  C         2.8076855514        6.5577358824       10.8584100627
  H         5.1141845731        6.0766729129       29.6361984287
  H         4.9647207449        5.3738347342       31.0169296389
  C         6.9108115712        6.2836605978       30.7049373913
  H        -9.6030720845       10.4056839594       24.4513446463
  H        -9.1923553153        8.8905574201       25.1886376677
  C        -9.6732579519       10.3639273517       26.5469725325
  S        -3.3438612947       14.3237286895       37.5148528926
  C        -3.2095587252       17.0105757835       37.7105378582
  H         2.5819116234        6.7138415474        9.8110347974
  H         2.8274600367        5.4896260615       10.9943210362
  H         1.8690504663        6.9010781023       11.3063872063
  H         7.2535068245        6.2282103278       31.7732643014
  H         7.1404235338        7.2557341250       30.1658601297
  H         7.3104694875        5.4063490412       30.1891140757
  H       -10.3263720319       11.2432490988       26.3759699667
  H        -8.9332233332       10.4947849580       27.4121681156
  H       -10.2975945527        9.5694511306       26.8511506157
  C        -3.6844338703       15.1760083333       39.0312050250
  N        -3.5803927528       16.5333937441       38.8838369184
  O        -3.0021492260       18.2001127847       37.3920912001
  S        -4.1172450545       14.4215398159       40.5607531449
  C        -3.7590432605       17.3885569252       40.0527380422
  H        -4.2020791590       18.3271892497       39.6699099523
  H        -4.5209330795       17.0792602126       40.7935546766
  C        -2.4705716668       17.5941156715       40.8576342736
  H        -1.5503918498       17.3270177919       40.2926773082
  H        -2.4558349329       18.6353452919       41.3072600867
  H        -2.4840363419       16.9035485559       41.6620587890
