352
i=
  H         5.0032449166        0.9321629429       12.2639840990
  C         4.4660416898        1.8613896204       12.5219898708
  H         5.0961882387        2.6691560877       12.5048959185
  C         3.3942334410        2.0463938604       11.4456878576
  C         3.9143013048        1.7884507110       13.9911587955
  C         3.9110346528        2.5066280960       10.0770000406
  H         2.5289404832        2.6525059864       11.7522042503
  H         3.1343200634        0.9869897555       11.2994096684
  H         2.8408386978        1.5887876144       14.0418891078
  H         4.0282844856        2.6344055370       14.6232353611
  H         4.3197137965        0.8687591687       14.4201644658
  C         4.6511640286        1.4014071171        9.3725567996
  H         3.0434922547        2.9018880230        9.4356924203
  H         4.5601731376        3.3483504478       10.3055943759
  C         5.3261927219        1.8654534778        8.1088581571
  H         3.9472278732        0.6529475471        9.1405864582
  H         5.3676436527        0.9646345089       10.0764247733
  C         6.5472305724        2.7196040124        8.3461965414
  H         4.5399437671        2.4484961777        7.6436244462
  H         5.6407692057        0.9727341104        7.5563390241
  C         7.7173492438        1.8660771602        8.8856926993
  H         6.6831052048        3.1794265146        7.3856435369
  H         6.2876101699        3.4862277760        9.0512054754
  C         8.9732996506        2.8629986296        9.1326331041
  H         8.0560791318        1.0855332683        8.1785567412
  H         7.3368440477        1.5147874807        9.8792550555
  C         8.6041276693        4.1818549576        9.8518426843
  C         9.4041917765        3.5451713903        7.8993225523
  C        10.1664176499        2.1327853025        9.7649809733
  C         8.8301286954        5.2683308236        9.0712783037
  C         8.2399496767        4.4699154877       11.1412854818
  C         9.2887547615        4.8956761603        7.8343691903
  C         9.9497105358        2.9180871004        6.8018120748
  H         9.9180919257        1.6026371540       10.6950154438
  H        10.5475794338        1.2970344390        9.1528416921
  C        11.4892124497        2.9553249676        9.8761210249
  S         8.4053905164        6.7438063443        9.7783033191
  C         8.0751153063        5.8307507211       11.2247597618
  H         8.0920500416        3.7287794607       11.9300740351
  C         9.7454748018        5.5460727487        6.7053456471
  H        10.0556056106        1.8451579431        6.8174774761
  C        10.3981878842        3.5523151051        5.6514378436
  H        11.1369979727        3.8338194247       10.4563802685
  H        11.8358833543        3.2954779253        8.8650773343
  C        12.6251923501        2.3152401547       10.6295992440
  C         7.5914331293        6.4929854688       12.4931502133
  C        10.3483864566        4.9248912682        5.5656545590
  H         9.7095123677        6.6350895145        6.5699713408
  C        10.7836854473        3.1567737734        4.3818080473
  H        13.3994996046        2.9864565754       10.7982766289
  H        13.0115312481        1.4571647235       10.0987181064
  C        12.1177719652        1.9200096118       12.0257160339
  C         7.4838569382        7.8748798598       12.7710548956
  C         7.2695436277        5.6886651074       13.6995790788
  C        10.8241059694        5.5833431197        4.2676119426
  C        10.9913665397        4.2864721008        3.5667181750
  S        11.1258144578        1.6852598778        3.6073642608
  H        11.4379026406        2.6839049131       12.4538043122
  H        11.6571756686        0.8926865148       12.0066922923
  C        13.3776614364        1.7187631836       12.9648429918
  N         7.6676406726        8.8278527960       11.7986506508
  C         7.2019365071        8.3878018662       14.0052771063
  C         6.9779720828        6.2328818807       14.9833988121
  H         7.3716958988        4.5851216079       13.7891594031
  C        12.0959124978        6.4072553037        4.3174054358
  C         9.5820991426        6.3633362495        3.6081896441
  C        11.2320362626        3.8721479680        2.1862513402
  C        11.3344691886        2.5009211510        2.1252764114
  H        13.9778021856        2.6214426590       13.0116398843
  H        14.0533051948        0.9911770460       12.5880265008
  C        12.9153332721        1.2087971862       14.3426189351
  S         7.4261231407       10.2677781786       12.4935982750
  N         7.1229787559        9.7950982432       14.0609862197
  C         7.0113438472        7.6759260621       15.1666305558
  H         6.6711591685        5.5538895939       15.7466075213
  H        11.7952333284        7.1900848650        5.0040492328
  H        12.2333732671        6.8649336744        3.3554682001
  C        13.3496881396        5.7918167071        4.9677014486
  H         9.4677339540        7.2687810146        4.2268318139
  H         9.9520711019        6.6820427146        2.6867001016
  C         8.2525939185        5.6530383323        3.4248106082
  H        11.1690438424        4.5654252173        1.4027261422
  C        11.6035994123        1.6440616885        0.8615269792
  H        12.3320436568        0.3289734255       14.0855265737
  H        13.7582105327        0.7951393072       14.9437165089
  C        12.1479398003        2.2660350149       15.1442780207
  C         6.8254033623        8.2359708335       16.3923198906
  H        13.0660534161        5.0928838491        5.7185345251
  H        13.6551159105        5.0824540544        4.2057631793
  C        14.4500832524        6.7017243165        5.3531929611
  H         7.8567723464        5.2806430211        4.3602073230
  H         8.2424362485        4.7839265277        2.8296956949
  C         7.2908769263        6.5848150732        2.5697835857
  C        11.7200096942        0.2214899704        0.7707431511
  C        11.8206061812        2.3082225403       -0.3826506644
  H        11.1240946860        1.8786611878       15.2413044066
  H        12.1513189268        3.2089818921       14.7161448829
  C        12.7818645497        2.3963622699       16.5535563988
  H         7.0206978317        9.2419279324       16.4892182593
  C         6.7205633118        7.7095709283       17.6688761378
  H        14.1639948552        7.1582127232        6.2728491668
  H        14.5716340477        7.5476620837        4.6242901005
  C        15.8453771682        6.0614006288        5.3806020145
  H         7.1882665011        7.5332667387        3.0372708041
  H         7.8854744055        6.7621474409        1.6930393975
  C         6.0797200406        5.7679408624        2.2000340508
  N        11.5688381320       -0.7492382442        1.8852669302
  C        11.8108040583       -0.5101589005       -0.4405616610
  C        12.1187427715        1.6285674833       -1.5757080090
  H        11.6520898812        3.3592319801       -0.4548026860
  H        13.8853878612        2.5046932355       16.4836436107
  H        12.7087277702        1.5613183445       17.2207031037
  H        12.4331674157        3.2683744449       17.0726588828
  S         6.4945271843        6.0797862220       18.2104513909
  C         6.5503369662        8.7124062686       18.7911663173
  H        16.0521965508        5.2858132307        4.6510355001
  H        16.5451784375        6.8620439474        5.1108394075
  C        16.1785783203        5.6698266957        6.8129934489
  H         5.6142602143        5.2245413109        3.0770341314
  H         6.4491705367        4.9802562483        1.5618547670
  C         5.0402010814        6.7011882604        1.4441483371
  S        11.5468643067       -2.2725202817        1.3311273003
  N        11.7886445774       -1.9294319914       -0.2384200213
  C        12.0779020664        0.1484418217       -1.6701168174
  H        12.0854597103        2.2144070423       -2.4220123244
  C         6.2644964518        6.7397329043       19.8128676006
  N         6.2847221074        8.0911582126       19.9759404675
  O         6.7399499177        9.9320965460       18.6901233917
  H        16.1981504724        6.5123024262        7.4604526494
  H        15.4515591096        4.9751642734        7.1288213771
  C        17.5409468148        5.0845389274        7.0396504566
  H         5.5154838345        7.2222546212        0.6574959949
  H         4.2146741117        6.1453222235        1.0002275124
  C         4.4313131018        7.7978648399        2.2759001412
  C        12.4456927444       -0.5954735785       -2.8438575609
  S         5.7140233488        5.7675909305       21.1573159158
  C         6.2322687512        8.7730286399       21.2891925997
  H        17.5016448734        4.4758069380        7.9879317866
  H        17.6830771826        4.2907187544        6.3336908010
  C        18.6024999426        6.0806363724        7.0272980997
  H         5.0094824469        8.0779962328        3.1831515867
  H         3.5130324770        7.5603475897        2.6808493513
  C         4.1879821919        9.1298261854        1.3836789063
  H        12.3711914086       -1.6827512028       -2.8010570090
  C        12.9416916201       -0.2261213245       -4.0123127803
  H         5.6020351074        8.2932844061       22.0356452458
  H         5.8731117869        9.8251457855       21.1340918525
  C         7.6349093434        8.8207538237       21.8640309182
  H        19.4246433520        5.6810034004        7.7231304337
  H        18.4640904284        7.1307069741        7.3169299787
  C        19.4102571815        6.0720583902        5.7503786572
  H         5.0845823500        9.5169217952        0.9839494575
  H         3.6127124359        8.9062541519        0.4422446458
  C         3.6318724392       10.2893307235        2.2318307717
  S        13.3264279734        1.4031877991       -4.3508641427
  C        13.1068057195       -1.2065443240       -5.1063086434
  H         8.3887335799        8.0496400809       21.6377205570
  H         7.6589846548        8.7995605654       22.9387781350
  H         8.1208336850        9.6651994332       21.4874079509
  H        19.2870179925        5.1474537967        5.1338588806
  H        19.1999752666        6.9714733577        5.1661325445
  H        20.4866113155        6.0005148709        5.9728579505
  H         2.6149667163       10.0858341921        2.4758872288
  H         4.2683410231       10.5407738946        3.0992465504
  H         3.6237054380       11.1784854316        1.5435972143
  C        13.9363498449        0.7599580996       -5.8529076340
  N        13.7780189732       -0.5596641113       -6.0883597261
  O        12.9271768177       -2.4051025357       -4.9543685371
  S        14.3852208480        1.6735233198       -7.3373595331
  C        14.0455425958       -1.2854993065       -7.2868038204
  H        14.1645982052       -2.2902655558       -6.9699139116
  H        14.9485321199       -0.8951551011       -7.8489867134
  C        12.8468264083       -1.3653295086       -8.2718842452
  H        11.9028782165       -1.4292495669       -7.7083779285
  H        12.9314932799       -2.3438077379       -8.8689289812
  H        12.8420239568       -0.5627902832       -8.9973173276
  H        -3.8185202325       15.0820693984       16.5163295605
  C        -3.2402722423       14.1032080796       16.4306561490
  H        -4.0625205171       13.4491323549       16.8195494704
  C        -2.0042387259       14.0221209215       17.2782637129
  C        -2.8296847842       13.8117650941       14.9463241442
  C        -2.1389450642       14.3065766877       18.8031567571
  H        -1.8075399633       12.9747672919       17.2833897403
  H        -1.1793245276       14.6156812736       16.8070137851
  H        -2.9670773236       12.8147130441       14.6436287944
  H        -3.3546278492       14.4699465662       14.3081076961
  H        -1.7438034044       14.0258292845       14.8896838858
  C        -2.1544723691       12.9837012740       19.5505563698
  H        -3.0380289127       14.8420202319       19.0841905506
  H        -1.3230064445       14.8453497836       19.1697237581
  C        -2.6063823441       13.1425083903       21.0552597498
  H        -2.9289649656       12.4061483141       19.0814788110
  H        -1.2187407242       12.4009938638       19.3673972834
  C        -1.6739559766       12.5657968486       22.1506975965
  H        -3.5776962002       12.6411594661       21.2948676863
  H        -2.8346723995       14.1855263581       21.2297239903
  C        -0.3457090968       13.3863980664       22.3700755971
  H        -2.2129173062       12.4981698933       23.0663467652
  H        -1.4439155212       11.5176262367       21.8978868668
  C         0.7563619876       12.7242289032       23.1491359330
  H        -0.0093778662       13.7401846645       21.3979419777
  H        -0.6410770381       14.3759417345       22.8633329106
  C         1.1512802682       11.3752856096       22.5908898551
  C         0.2644664846       12.1562128766       24.4512163363
  C         2.0194264247       13.6488737403       23.1197350531
  C         0.7624645054       10.3437211736       23.4009141513
  C         1.7849997515       10.9152402700       21.4428549697
  C         0.1926051279       10.8200736781       24.5659774965
  C        -0.0703543685       12.8272929686       25.5778040634
  H         2.3553014690       13.7776276533       22.0779962073
  H         1.7605875247       14.7175488329       23.4492349978
  C         3.2172646366       13.2218497637       23.9933591178
  S         1.1430265806        8.7639096321       22.7273551419
  C         1.9370331510        9.5142777313       21.4307579813
  H         2.0297984273       11.6294844917       20.7226659227
  C        -0.1099925863       10.2580578006       25.7581444348
  H         0.0413829440       13.8907030552       25.4431028660
  C        -0.3373193104       12.2811514468       26.7888382447
  H         3.5557979216       12.2313286793       23.5733294262
  H         2.8793411261       12.9759899461       25.0010910671
  C         4.4335774042       14.0733570893       23.9764340976
  C         2.4316230381        8.8602276257       20.1360392893
  C        -0.4339118381       10.9357833782       26.9827488744
  H        -0.2577027847        9.1288948859       25.7334788703
  C        -0.7340215501       12.7208236840       28.0062258400
  H         5.1788014904       13.5848823487       24.6699207301
  H         4.2033727144       15.0185283183       24.4494132218
  C         5.0956400684       14.3175823833       22.5812462661
  C         2.5366244320        7.4175039554       20.0120156938
  C         2.8201287108        9.7093914253       19.0204870450
  C        -0.7710036734       10.2943250452       28.2976506531
  C        -0.9596071277       11.6518149696       28.9251027939
  S        -0.9162166803       14.2202244109       28.7782370602
  H         5.9206589679       14.9791442787       22.7800316889
  H         4.4551394032       14.8227196837       21.9055567949
  C         5.7488171024       13.1128544905       21.8712018027
  N         2.2226643799        6.4779482716       20.9563434002
  C         2.7612597128        6.8906271245       18.7273285589
  C         3.2098909698        9.1139490607       17.8131582600
  H         2.7573014524       10.7971778080       18.9787709069
  C         0.2885257906        9.4725212895       29.0281158074
  C        -2.1410374628        9.5965712762       28.3104274711
  C        -1.3815738404       12.0780789092       30.2568411959
  C        -1.4320614628       13.4399562243       30.2581635090
  H         6.7325114954       12.9987949486       22.4289153812
  H         5.1363981674       12.2434095179       21.9648773623
  C         6.0539849862       13.3098317034       20.4369358426
  S         2.2606068237        5.0160726774       20.2848148963
  N         2.4477795231        5.4932360567       18.7750476653
  C         3.1537308180        7.6415224981       17.6123934141
  H         3.6490353010        9.7440432731       17.0621933952
  H         0.5451939435        8.5653604177       28.4599773200
  H        -0.1484008845        9.2616028383       29.9880303954
  C         1.6065493309       10.2616689108       29.4281735692
  H        -2.2173947314        8.8032069131       27.4948333332
  H        -2.3820727420        8.9877509977       29.1817364948
  C        -3.2650259703       10.4760799315       28.0979136454
  H        -1.7360852140       11.3377774473       30.9701013299
  C        -1.7831558398       14.2647321910       31.4326279816
  H         5.5018685321       14.1642544744       20.1882400681
  H         5.5963549884       12.5240379697       19.8199955287
  C         7.5822221675       13.4649595073       20.1333258796
  C         3.4717445208        6.9576081491       16.3583338009
  H         2.0561034591       10.5576919004       28.4915595074
  H         1.4551533395       11.2261251538       29.9025324607
  C         2.6573392050        9.4108109976       30.1129936146
  H        -3.0591675702       11.3202493580       27.3931523578
  H        -3.4636530816       10.9646820654       29.0277601219
  C        -4.5425614925        9.8157085806       27.6143222207
  C        -1.6979111875       15.7066476185       31.5993641374
  C        -2.1283091558       13.5923391847       32.7512202984
  H         7.8736838842       14.3718408065       20.7204671641
  H         8.1119133313       12.5957385171       20.5534184475
  C         7.8349967869       13.4799664160       18.6604655609
  H         3.3769589170        5.8792548373       16.4872960649
  C         3.6629346860        7.3865846797       15.0121029668
  H         2.9398261736        8.7099493228       29.3315478252
  H         2.2862041566        8.8852740896       31.0036353048
  C         3.8310814369       10.2910580106       30.6838027100
  H        -4.3577350251        9.3243303571       26.6094665671
  H        -4.9315584550        9.0210006681       28.3425291415
  C        -5.5990013940       10.9163718847       27.5661155150
  N        -1.3610593555       16.5403935958       30.5616945313
  C        -1.8371620351       16.3879922297       32.8123598196
  C        -2.4260449553       14.3149412931       33.9337010582
  H        -1.9934656627       12.5039889946       32.8842975780
  H         8.5951579787       14.2116778843       18.5184842194
  H         8.2165946646       12.5087891941       18.2754217531
  H         7.0107476188       13.7223820584       18.0326345314
  S         3.8163095992        8.9577941670       14.4570726215
  C         3.7003230879        6.3293523515       13.9691180984
  H         3.9926927647       11.1911638206       30.1039117541
  H         3.5903680801       10.6461852980       31.7409198184
  C         5.1654684158        9.4611704369       30.6843578494
  H        -5.2954053294       11.7191279215       26.8741093407
  H        -5.5511452188       11.2841709848       28.5752719207
  C        -6.9472297614       10.2515903523       27.1686690788
  S        -1.4565008700       18.1094715654       31.0418570548
  N        -1.8530479458       17.7763440909       32.6097238554
  C        -2.2478255630       15.7801345038       34.0279341666
  H        -2.6283557204       13.7315969948       34.8238656319
  C         3.9298403590        8.1356796385       12.8936886976
  N         3.9264772781        6.8359145257       12.7543879100
  O         3.5919808399        5.1366160485       14.2055163965
  H         5.8892588023       10.0198615878       31.2755591008
  H         5.5472206437        9.2900918920       29.6591696511
  C         5.0137425558        8.0661568367       31.4503931081
  H        -6.7753224873        9.1563214259       27.0824261918
  H        -7.6098054351       10.2550230812       27.9661724044
  C        -7.5747177082       10.7985871816       25.9217293914
  C        -2.5085542686       16.6881631312       35.1043137741
  S         4.0515725601        9.0295472184       11.4340499852
  C         3.8206278046        6.0687525188       11.4755773045
  H         4.6661497999        8.2718311817       32.4357061155
  H         4.3139880716        7.4132815762       30.8840032820
  C         6.3078548649        7.2659081654       31.5370434137
  H        -6.7716518330       10.8861570220       25.1358313816
  H        -7.8050764462       11.7628364203       26.0668185825
  C        -8.7221789483       10.0802742964       25.4121708468
  H        -2.1369070976       17.6517385676       35.0297264548
  C        -3.1614234173       16.4659738576       36.3469073885
  H         4.3506579155        6.4451799398       10.5926196759
  H         4.2625457639        5.1138289334       11.6674454778
  C         2.3556342267        5.9455525949       11.1288937365
  H         6.3362576680        6.7813567549       32.5054159426
  H         7.0127931351        8.0386878498       31.6247226480
  C         6.4950399944        6.2211115610       30.4438055067
  H        -8.9975583019       10.4851896111       24.4485828207
  H        -8.3665834986        9.1323329841       25.1052756664
  C        -9.9407286236        9.8048367371       26.2780980836
  S        -3.8318579745       14.9719363000       36.8203049532
  C        -3.2117914896       17.5723982700       37.3205537039
  H         1.9870913265        6.3055324257       10.1242592338
  H         2.0329244693        4.9899956837       11.4736321466
  H         1.7695694610        6.6000813961       11.8280004284
  H         7.5480381419        5.8203973739       30.6238669794
  H         6.4157116718        6.5846093395       29.3936401798
  H         5.7111347294        5.4450785648       30.5229841220
  H        -9.7785842221        9.2326732772       27.2004053642
  H       -10.7990469669        9.3897982137       25.7222708825
  H       -10.4153464933       10.7539002261       26.5669165143
  C        -4.0717452386       15.8076861908       38.4199650101
  N        -3.8043568307       17.1170934703       38.4675718799
  O        -2.6684006036       18.6422295105       37.0774540435
  S        -4.9462850543       15.2107810705       39.9077323372
  C        -3.7062969966       17.9562947588       39.6532921050
  H        -4.0281964043       18.9875868640       39.3731537709
  H        -4.4334893999       17.7202475320       40.4537682771
  C        -2.2929692367       18.0417844319       40.2413903221
  H        -1.4941535031       17.5059836105       39.7153348189
  H        -1.9975716821       19.0653845659       40.1758094512
  H        -2.3009673985       17.6615806628       41.2811251130
