352
i=
  H         3.7758337789        1.2583521049       12.9014615794
  C         3.3620473994        2.2305322659       12.9540146585
  H         4.1390483874        2.6854761464       13.5873555566
  C         3.0944274450        2.7096103326       11.5482913754
  C         2.1838342356        2.1196254451       13.8178620559
  C         4.3701553485        2.7625637855       10.8516750769
  H         2.7710050710        3.7153760550       11.5867524246
  H         2.3921632316        2.0832697103       10.9842189932
  H         1.6827589374        3.0163358756       13.7249216869
  H         2.4313225660        1.8192412816       14.7992981380
  H         1.6102057964        1.2818392425       13.4270918309
  C         4.7564273730        1.3757686511       10.2952581334
  H         4.3019287941        3.5546136321       10.0259204573
  H         5.2111687394        2.9693705075       11.5103357130
  C         5.3075284236        1.5305784459        8.8977041496
  H         3.9054805881        0.6621428947       10.3701886822
  H         5.4818993259        0.9445976938       10.8817684608
  C         6.5612631831        2.3880334891        8.8205423430
  H         4.4714382069        1.9990292565        8.3490811688
  H         5.4815191990        0.5798404023        8.3516080729
  C         7.6994766889        1.8035249680        9.7696915396
  H         6.8078817893        2.4958913018        7.8136394653
  H         6.2878265152        3.3848314958        9.1055085768
  C         8.9582357503        2.7600043268        9.8251769803
  H         8.0666550682        0.8462064776        9.4181470632
  H         7.4333261414        1.8160790012       10.8682206503
  C         8.6365983073        4.0760677420       10.5112859724
  C         9.3673749982        3.4551623746        8.5228224626
  C        10.1912851711        2.1187225495       10.4669576637
  C         8.8100725828        5.1747806352        9.6580532384
  C         8.0748967362        4.4297381491       11.7452618697
  C         9.3155002486        4.8334566309        8.4122486241
  C         9.8180463722        2.8418265979        7.4034179509
  H         9.9092641902        1.5102212297       11.3321796958
  H        10.6342527495        1.3465030710        9.7897217605
  C        11.3152138955        3.1328262867       10.8039875059
  S         8.4755305128        6.6200790517       10.4297906469
  C         7.8331369374        5.7863852924       11.7685973833
  H         7.9029872739        3.7102464960       12.4728773846
  C         9.7903429606        5.4555290268        7.3161520044
  H         9.9642457799        1.8293150767        7.4784007725
  C        10.2119442623        3.4663300171        6.2902779566
  H        10.9175853868        3.9264468564       11.4685015648
  H        11.6558147717        3.5837148405        9.8804983400
  C        12.6387105348        2.5254963449       11.4139313435
  C         7.4139614991        6.4849553221       13.0296244012
  C        10.2088925960        4.8023893159        6.2007063798
  H         9.7756895640        6.5021079140        7.3657304882
  C        10.6193264561        3.0808160765        5.0267179212
  H        13.6024044104        2.9121080618       10.8911354606
  H        12.7933333502        1.4490312290       11.2275118376
  C        12.7485073785        2.7980927010       12.9171035863
  C         7.3536828461        7.8874569601       13.2918474842
  C         7.0222144754        5.6138328689       14.1686757233
  C        10.6317930199        5.5110099056        4.9449788646
  C        10.9383372285        4.1627689003        4.2231079519
  S        10.8605913899        1.5455588587        4.2260693596
  H        13.7985122082        2.9661205759       13.0151688988
  H        12.2459987091        3.6971086783       13.2009652865
  C        12.3317540469        1.6352077454       13.8844430873
  N         7.7586814002        8.8284026125       12.3381792064
  C         7.1439261418        8.4029128194       14.5269425771
  C         6.8164675782        6.1176556292       15.4704340073
  H         6.7430606865        4.5998797973       14.1256055202
  C        11.9696761218        6.2665260732        5.0709402827
  C         9.6255582559        6.3589602463        4.1021700545
  C        11.2258301232        3.7399197692        2.8961290073
  C        11.1958174449        2.3384809351        2.7519488385
  H        13.2172632658        1.0590227161       14.0231406236
  H        11.6369798784        0.9214389858       13.4921450355
  C        11.7866214922        2.0536558743       15.2242530048
  S         7.7626304745       10.3393864761       12.9986205689
  N         7.3859382440        9.7988481741       14.5162910401
  C         6.8987592287        7.6249290137       15.6434148597
  H         6.6004143630        5.3783450203       16.2327304401
  H        11.6997816942        7.0900696688        5.7342680320
  H        12.0853266292        6.8245232879        4.1310273958
  C        13.2095601236        5.5178795201        5.3701630117
  H         9.1635089388        7.0668663196        4.8100955396
  H        10.1113197959        7.0823194153        3.3828832935
  C         8.5421570649        5.5517478913        3.4365191560
  H        11.5078972809        4.4460737530        2.1092689445
  C        11.5129668024        1.5749921540        1.4717027977
  H        11.1589865429        2.8797910673       15.0383620171
  H        11.0771522344        1.2921228473       15.5328616620
  C        12.9245923424        2.2621325809       16.1846885518
  C         6.6583972664        8.3482239972       16.8490708010
  H        13.0255709816        4.9652408160        6.2852483927
  H        13.3291058739        4.8362250291        4.4698620097
  C        14.4435606941        6.3875739226        5.6519579035
  H         8.2519562931        4.6577771947        4.0858031142
  H         8.9008718887        5.0547698782        2.5003035359
  C         7.2976647985        6.3888364102        3.0828551607
  C        11.6366358579        0.1829919505        1.3274514481
  C        11.8824060592        2.3778095323        0.2881581325
  H        13.7446394148        2.7444371137       15.6711676293
  H        13.2988676492        1.2312044439       16.2786124333
  C        12.4545202427        2.7037446727       17.5742141057
  H         6.9406360803        9.3702471913       16.8461870582
  C         6.2387960745        7.9940271106       18.1197396203
  H        14.3077321547        7.0154029459        6.5431225088
  H        14.6659916880        7.0484710351        4.7894361622
  C        15.5091068801        5.4093602766        5.8932280852
  H         7.0112177868        6.9057337698        3.9760813069
  H         7.5626579330        7.2013192000        2.4483430957
  C         6.0285147759        5.7058165797        2.4987573866
  N        11.5360943209       -0.7841511791        2.3190446934
  C        12.0374400652       -0.4536647739        0.1966175582
  C        12.1779838061        1.7863206056       -0.9243578541
  H        11.9747227132        3.4571945119        0.3641656046
  H        11.4309445701        2.3368568900       17.9054771408
  H        12.5237764421        3.7594622384       17.6242561659
  H        13.1457020326        2.3406355592       18.2668505504
  S         5.7495750141        6.4213919800       18.6677733555
  C         6.3974171532        9.0233597119       19.2164189776
  H        15.0877499350        4.6043472167        6.4610538524
  H        15.8536293984        4.8178403847        4.9375340382
  C        16.7131654908        6.0269319252        6.5767017289
  H         5.7943160349        4.8557790938        3.1905705488
  H         6.1158937629        5.2237566274        1.5926176232
  C         4.7776080748        6.6269393690        2.6187065647
  S        11.7750500397       -2.2759447135        1.8142451850
  N        12.1030820078       -1.8561013397        0.2986491374
  C        12.3179985119        0.2951405606       -0.9773609869
  H        12.3278919280        2.3752503964       -1.7705640057
  C         5.5161345931        7.2097863405       20.2446300691
  N         5.8502312145        8.5382240148       20.3669747707
  O         6.6219571528       10.2174948445       19.0399249725
  H        17.3403947586        6.5310780028        5.8421813179
  H        16.3571238155        6.7445512920        7.2648246677
  C        17.5825197788        5.0097663559        7.3472045053
  H         3.8041807612        6.1021685502        2.7115005690
  H         4.7653044454        7.1760989644        3.5347747360
  C         4.7899690151        7.5576404454        1.3549348071
  C        12.7109717431       -0.4637629564       -2.1056772430
  S         5.1117377424        6.4281546208       21.7283584470
  C         5.9030080222        9.3845097060       21.5130043524
  H        16.9046637169        4.6584260513        8.1677029813
  H        17.9816234899        4.1733754927        6.8127268691
  C        18.7665474349        5.6026185357        7.9968302773
  H         4.7259160688        6.9829354881        0.4212052473
  H         5.6722944612        8.1201330055        1.3102953347
  C         3.5853988135        8.4822857881        1.3775276006
  H        12.6818240056       -1.5332494891       -2.0537470737
  C        13.1513716006       -0.1277137925       -3.4090671043
  H         5.0712976864        9.2874691715       22.1916445793
  H         5.7404962911       10.4082272302       21.0961768736
  C         7.2239505744        9.2828314751       22.2122414293
  H        18.9897700136        5.2238126099        9.0193829273
  H        18.7651043591        6.6676187222        8.1908741337
  C        19.9518238829        5.5046537077        7.0165238062
  H         3.5175638961        9.0760015692        0.4681599079
  H         2.6730992831        7.9055935932        1.5654327936
  C         3.7315651047        9.6304621414        2.3511449234
  S        13.5556872749        1.4094016366       -4.0722507727
  C        13.4202102539       -1.1893451384       -4.3875188193
  H         7.2913103033        9.6790169495       23.1789294968
  H         8.0292097161        9.9317819134       21.7636267667
  H         7.6198907294        8.2276737404       22.1262529587
  H        20.8838390828        6.0269913336        7.2772411304
  H        20.2891576041        4.4782845841        6.8497734245
  H        19.6049771408        5.9092415924        6.0529779761
  H         4.7321958811       10.0100938601        2.3010488436
  H         2.9966077929       10.3636366201        2.0081529950
  H         3.5449418456        9.2902755750        3.3531447315
  C        14.0369103960        0.6084894086       -5.6141576100
  N        13.7956050605       -0.7189117309       -5.5600214208
  O        13.2023348214       -2.3578232276       -4.1424152385
  S        14.6848954437        1.4200735985       -7.0737572425
  C        13.8848609251       -1.5654902716       -6.7963748323
  H        14.2004777067       -2.5530493508       -6.4578314881
  H        14.7596675225       -1.2599099002       -7.3977787033
  C        12.5453262862       -1.6628662789       -7.5798485292
  H        12.2119142394       -0.7122035229       -8.0985414234
  H        11.6663900890       -1.9673346740       -6.9620396370
  H        12.6681730946       -2.4461880105       -8.2919518302
  H        -3.0960886639       14.9235414387       16.0905592145
  C        -3.1357382000       13.7866165640       16.1074109175
  H        -4.1025954292       13.5414746717       16.4839891007
  C        -2.0189149411       13.4776020246       17.0676278829
  C        -2.9875954319       13.1911580699       14.6853108125
  C        -2.0812198584       13.9896097678       18.5198657623
  H        -2.0016203579       12.3766689062       17.1395295026
  H        -1.0751706784       13.8027541776       16.6870440578
  H        -3.4949248466       13.9207593409       14.0177943080
  H        -2.0217141064       12.9994367618       14.2971001106
  H        -3.6618951403       12.3482573150       14.6481541598
  C        -1.7716438474       12.9894401239       19.5551330265
  H        -3.1391045352       14.3623283960       18.6589247220
  H        -1.3482252619       14.7846703081       18.6613343558
  C        -2.0912399282       13.4744919782       20.9707594537
  H        -2.3446189468       12.0283786662       19.4686417610
  H        -0.7453786598       12.8140476504       19.5546182978
  C        -1.1686303520       12.9236330489       21.9893072350
  H        -3.0615880571       13.3055838659       21.3613786353
  H        -2.1022395499       14.5381482809       21.0412198121
  C         0.1280670276       13.7361960040       22.2603714137
  H        -1.7221034566       12.8795463440       22.9135049553
  H        -1.0304465801       11.8508315031       21.7179135391
  C         1.2360332825       12.9472478046       23.0867825246
  H         0.3679312624       14.1548669076       21.2608301369
  H        -0.0401384653       14.6525527226       22.8447159390
  C         1.5619523115       11.6172023056       22.4414417213
  C         0.8185023648       12.2491016340       24.3799825083
  C         2.4489486055       13.8211206785       23.2991434634
  C         1.3634982314       10.5077224493       23.2566239764
  C         2.1139956787       11.1829442739       21.2254644208
  C         0.8833968270       10.9022749278       24.4928288129
  C         0.3687684070       12.8059538837       25.5460651733
  H         2.7109388840       14.3704915346       22.3606329634
  H         2.1439911832       14.6386449328       23.8992537699
  C         3.7577196277       13.1147905861       23.7752479548
  S         1.6898044081        8.9486786527       22.5795470505
  C         2.0574736890        9.8078340125       21.1200135517
  H         2.4156407147       12.0138712420       20.6139387808
  C         0.4563571730       10.2415759537       25.6423107025
  H         0.5525761629       13.8644987628       25.6710522507
  C        -0.0292384154       12.1884813941       26.6481142857
  H         4.0784053827       12.3942806080       23.0063697644
  H         3.5711120243       12.4788344249       24.6264474659
  C         4.7972402083       14.1741298197       24.2264135365
  C         2.5128201468        9.0658125123       19.9280308873
  C        -0.0280799942       10.8770941729       26.7573196170
  H         0.3799805813        9.1939494461       25.5850793402
  C        -0.5230958802       12.5272373069       27.9383087352
  H         5.6301823446       13.7067591326       24.7601061984
  H         4.3252011347       14.8950950403       24.8488040176
  C         5.5066538093       14.8364306726       22.9338944373
  C         2.3708890771        7.6899804426       19.5930491141
  C         2.9840530831        9.8758179509       18.8070710880
  C        -0.4156306765       10.0895869022       28.0376402938
  C        -0.8052765556       11.4426939674       28.7408192434
  S        -0.8900056468       14.0213775432       28.5826212511
  H         5.9399541556       15.7892491067       23.1202544769
  H         4.7556217494       15.0170463716       22.1985151010
  C         6.6512558521       14.0136114351       22.2597898813
  N         1.8959799086        6.7337705772       20.4921645173
  C         2.5195137180        7.1132096224       18.3643423117
  C         3.1902001179        9.3188537580       17.5414850369
  H         2.9965072154       10.9575454624       18.8119294740
  C         0.7581281737        9.3162981375       28.7360075160
  C        -1.7106089891        9.2330580963       27.9030805466
  C        -1.2231723314       11.9118984220       30.0075939494
  C        -1.2125162134       13.2744916709       30.0970209615
  H         7.5949122422       14.3814936818       22.5485875917
  H         6.6209138565       13.0353121729       22.6833743948
  C         6.6144799792       13.9579579638       20.8079029109
  S         1.7144798553        5.2993350031       19.7774673395
  N         2.4041117546        5.7306904070       18.3752873702
  C         2.9708093243        7.8886568997       17.2767509561
  H         3.4747481321        9.9749155429       16.7654558630
  H         1.1671997466        8.7179564879       27.9076392495
  H         0.3570841254        8.6229625459       29.5171487103
  C         1.8312912141       10.3097101796       29.3585976016
  H        -1.5853696842        8.3583244306       27.2589488783
  H        -1.8143949547        8.7069345160       28.7774604309
  C        -2.9783116806       10.0231891650       27.4419092369
  H        -1.3929616238       11.1818727297       30.7788478120
  C        -1.5042716979       14.0295353229       31.3114816293
  H         6.4487949453       14.9229651896       20.2966736614
  H         5.7480482363       13.3546352083       20.5348524127
  C         7.7730320813       13.2229565272       20.0819619731
  C         3.2240800863        7.3001633595       15.9983311354
  H         2.0838259572       11.0629981677       28.6674761016
  H         1.3809462382       10.7967790214       30.1911545595
  C         3.1710514811        9.6069768997       29.8303145114
  H        -2.6879014137       10.6759497240       26.6739390172
  H        -3.3849833524       10.5801814125       28.2410950745
  C        -4.0023143406        9.0164134782       27.0575070242
  C        -1.6655562525       15.3994038163       31.4276222019
  C        -1.8353235622       13.2983106751       32.6190192338
  H         8.6678443383       13.5725481132       20.5058395343
  H         7.8406224304       12.1248052488       20.3921950894
  C         7.8675579312       13.5664913118       18.6077002589
  H         3.0774914505        6.2461380674       16.0534953021
  C         3.5373390892        7.7909096705       14.7206665883
  H         3.7373836394        9.2812965722       28.9624247298
  H         2.9845364414        8.7170727392       30.3858138519
  C         3.9942419863       10.5011419377       30.7857604556
  H        -3.7332141874        8.4717494933       26.1190263413
  H        -4.1405877017        8.2988456710       27.8272415991
  C        -5.4338704416        9.6361468418       26.8752184054
  N        -1.2951151948       16.3378841999       30.4223131325
  C        -2.0809916782       16.0231242970       32.6071716351
  C        -2.1887164343       13.9565674116       33.8047109550
  H        -1.8570195283       12.2697288135       32.6050241863
  H         8.7730775733       13.1708023321       18.1558843390
  H         7.0268557296       13.1601962517       17.9885118077
  H         7.9191269013       14.7290371843       18.3877055101
  S         3.8530640635        9.3617338485       14.2644161863
  C         3.5896309218        6.7855676428       13.5981129955
  H         4.0812000524       11.4269997356       30.2663519112
  H         3.5773149627       10.6010482696       31.8176397983
  C         5.3756924662        9.9419049906       30.9511505099
  H        -5.5680205969       10.5614570058       27.5032161600
  H        -6.1462335466        8.8780461851       27.2073551185
  C        -5.6777371547       10.0426138340       25.3917632121
  S        -1.7305707565       17.8239262586       30.9503275195
  N        -1.8915868695       17.4085932893       32.5172420587
  C        -2.2936417859       15.3817507585       33.8561610201
  H        -2.2793054424       13.3827515991       34.7297431393
  C         3.9928129652        8.7331626543       12.5758971455
  N         3.9857681124        7.3822373833       12.4534361774
  O         3.4164065545        5.5790847609       13.7669799305
  H         5.9508699060       10.5419165378       31.6621373407
  H         5.8621067120       10.0841128207       29.9984282414
  C         5.5447678623        8.4004351402       31.2504521009
  H        -4.8041486811       10.4377858717       24.8999142838
  H        -5.8355038457        9.1434081070       24.8271465005
  C        -6.9029421317       10.9141642408       25.2255969373
  C        -2.5725081742       16.0975608232       35.1089014492
  S         4.4508487870        9.7613669963       11.2728390282
  C         4.1180327880        6.6668592982       11.1853955589
  H         6.0878468320        8.2721747807       32.2564692392
  H         4.5873932389        7.9463833786       31.4068902260
  C         6.3015464705        7.5223062966       30.2608176008
  H        -6.8261003611       11.6696113101       24.5153008849
  H        -7.1013043679       11.4418109215       26.2097497471
  C        -8.2101280858       10.0530691469       24.8447405177
  H        -2.5009663456       17.1514461484       34.8684652717
  C        -3.0774954985       15.7253145844       36.3154941446
  H         4.7703567321        7.3072662771       10.5274308997
  H         4.6574673343        5.7399026008       11.2484706340
  C         2.7411959193        6.5114874988       10.5062973581
  H         7.2347877504        8.0003638326       29.9391670686
  H         5.7397007172        7.4174603025       29.3473953017
  C         6.7515352925        6.2696486734       30.9629327572
  H        -8.4649261922       10.2591100366       23.7771341996
  H        -7.9202772301        9.0046680996       25.0000504617
  C        -9.4366152018       10.3271368941       25.7678197074
  S        -3.6338822519       14.1820480409       36.7753581902
  C        -3.2822450230       16.7860530073       37.3527834379
  H         2.0389445219        6.0820212396       11.2024992507
  H         2.3292949734        7.3639157626       10.1593795551
  H         2.7193113880        5.7702727465        9.7165535526
  H         7.2335291171        5.4152260226       30.3565055876
  H         5.9561810861        5.8817653644       31.6448051079
  H         7.4858845338        6.4924539503       31.7089330671
  H       -10.3306318532       10.2019964804       25.1627473551
  H        -9.3782293408       11.3139375070       26.1871916334
  H        -9.4840342591        9.7238750729       26.6622077528
  C        -4.0453025799       14.8993134532       38.3279952390
  N        -3.8796075909       16.2321146369       38.4252616901
  O        -3.0247176191       17.9836154288       37.2274535933
  S        -4.4711800649       14.0284029648       39.7192473274
  C        -4.2774404411       17.0359579153       39.5866078245
  H        -4.7184453795       17.9715975557       39.2757108675
  H        -5.0375756915       16.4880571271       40.2697492956
  C        -3.0238015341       17.2041151300       40.5235866895
  H        -2.1001695574       16.9796987281       40.0298136314
  H        -2.8761749502       18.1865678231       40.9954024829
  H        -3.1730887037       16.4591873716       41.3490799401
