352
i=
  H         3.3431174767        1.0632305416       14.0562248379
  C         3.9770807459        1.7693458935       13.5274454569
  H         4.8359531839        1.1954764199       13.3065055484
  C         3.4151614044        2.4230603009       12.2560432724
  C         4.3317140692        2.9062450910       14.5147850009
  C         4.4279471246        2.6920164369       11.1476199808
  H         3.0973061084        3.3991016038       12.5464915076
  H         2.5232721632        2.0099641571       11.8899613171
  H         3.4865190521        3.5348136127       14.8031496917
  H         4.9561458790        3.6835968498       14.1524504367
  H         4.6661246946        2.3772663937       15.4413249305
  C         4.9567416579        1.5059217952       10.4479276178
  H         4.0229352363        3.4166203170       10.3878397610
  H         5.2220121530        3.3322576268       11.5380022567
  C         5.6586051240        1.6436588681        9.0638055867
  H         4.1490170221        0.7949428579       10.2589107826
  H         5.6954906421        1.1039579511       11.1177726501
  C         6.8426784272        2.5419828264        8.9797549671
  H         4.9086675907        2.2123426187        8.5360665207
  H         5.7712974120        0.7070717567        8.5254988677
  C         8.1823868174        1.8680930654        9.4125527210
  H         6.8907453447        2.9780868064        7.9351661651
  H         6.6010489254        3.3985803474        9.5797051387
  C         9.3787842276        2.8734138528        9.4564484833
  H         8.4355313843        1.0163023279        8.8070367635
  H         8.0814658472        1.5186885972       10.3958802236
  C         9.0442835393        4.2477753799       10.0912947720
  C         9.6621758182        3.5597359580        8.1461409177
  C        10.6631342791        2.1258193703        9.9500331908
  C         9.2377083641        5.3736723671        9.2727324113
  C         8.5605263776        4.5965309212       11.3108631427
  C         9.7021429584        4.9020235528        8.0335874066
  C        10.0650769362        2.8579607092        7.0341268594
  H        10.4347860800        1.5914012869       10.8560568401
  H        10.8993515311        1.4421697671        9.1978991943
  C        11.8506236368        3.0687863121       10.4323987095
  S         8.5078002348        6.8306952615        9.8227919547
  C         8.2628141201        5.9729452962       11.3087297661
  H         8.3482875271        3.8679529775       12.0706357925
  C         9.9114500453        5.3994650535        6.7908778131
  H        10.1222448976        1.7947683893        7.1463995943
  C        10.3634767333        3.3247697185        5.8031405186
  H        11.4858780303        4.0564592249       10.9211318632
  H        12.4317669330        3.4466043004        9.6197160122
  C        12.8510948218        2.5116510915       11.5284911243
  C         7.5184906844        6.6048095057       12.4875617595
  C        10.3035107724        4.6650630447        5.6469832545
  H         9.8678802214        6.4385341800        6.5125762383
  C        10.8260660164        2.8785851936        4.5788885878
  H        13.8600646564        2.9977260188       11.4706385270
  H        13.2021360189        1.5505718602       11.3229222159
  C        12.1540957846        2.4267690807       12.8832878001
  C         7.7032258329        7.9681462332       12.8557319837
  C         7.0821891265        5.6950235468       13.6048300115
  C        10.6702340914        5.2666487345        4.3557241180
  C        10.8201926276        3.9312059706        3.7228803635
  S        11.1643441667        1.3341448915        3.8782083673
  H        11.7602156261        3.4643178881       13.1064701072
  H        11.3247805606        1.6971034963       12.8332932136
  C        13.0700519547        1.8965044809       14.0950209911
  N         8.2229228146        8.8955389949       11.9919654658
  C         7.4019954780        8.4639686389       14.1083217581
  C         6.8086200962        6.2382611283       14.9080421911
  H         6.9018440810        4.6167297430       13.3958239944
  C        11.9810599560        6.0090434060        4.3893069814
  C         9.4786363879        6.0910395581        3.6443684590
  C        11.1385315337        3.4485312490        2.4485864104
  C        11.2970623360        2.0849536338        2.3901631519
  H        13.3553562207        2.7970377386       14.6761958796
  H        13.8655796106        1.4378121433       13.6004790428
  C        12.4577425021        0.9049036863       15.1243334096
  S         8.3323994800       10.2488780465       12.8202924242
  N         7.5258880312        9.8709356367       14.1577918966
  C         7.0531799141        7.6700801359       15.2362720836
  H         6.5204040501        5.5350905813       15.6614401929
  H        11.9042647586        6.9220939154        4.9356059228
  H        12.2382933982        6.2216165643        3.3825090054
  C        13.1122694226        5.2291564175        4.9762859239
  H         9.2496282879        6.8778343189        4.3342114160
  H         9.7656671721        6.5541470856        2.7100187419
  C         8.2259098362        5.2822295954        3.3088423061
  H        11.0954165717        4.1493029645        1.6221046031
  C        11.5945758129        1.3321921395        1.0873392776
  H        11.7895714050        0.1966948906       14.6942007777
  H        13.2686605582        0.4975007731       15.6372029235
  C        11.7329327426        1.7031647686       16.2032377969
  C         6.8103971465        8.3053045427       16.4841101230
  H        12.8006021471        4.7567608834        5.9436695774
  H        13.3946688695        4.4645756809        4.3281377218
  C        14.2897886893        6.1501709509        5.1897981478
  H         7.6899435461        5.0655576955        4.2197106800
  H         8.5290519529        4.2072614350        2.9965161393
  C         7.2976770979        5.8952550855        2.2558317710
  C        11.6601172673       -0.0346429881        0.8584825093
  C        11.9184273913        2.1245647342       -0.1336607302
  H        10.8336005475        1.2107101042       16.5880553161
  H        11.2371877549        2.5849677119       15.7279042157
  C        12.6146729484        2.0123407245       17.3586843111
  H         6.9282813814        9.3673504556       16.4365461707
  C         6.4739839114        7.8366046096       17.7027044688
  H        13.9848259650        7.0186943737        5.7417699512
  H        14.6135880706        6.5726515207        4.2362129412
  C        15.3338955618        5.2512058902        5.9361382213
  H         7.9040998715        6.5300364151        1.6710511182
  H         7.0018295866        5.0382947662        1.6287784940
  C         6.0753726805        6.6020466249        2.9664129219
  N        11.5513433027       -0.9602957421        1.8641287454
  C        12.0483230902       -0.6820293803       -0.3304055094
  C        12.2285061792        1.4995343461       -1.3269950989
  H        11.8800922679        3.1743292418       -0.0090145343
  H        12.0655799434        2.5827094096       17.9001636082
  H        13.5029801691        2.6517630244       17.0298001648
  H        12.8351082912        1.0969601405       17.9559648417
  S         6.1662195680        6.2112226467       18.1246966533
  C         6.1991735967        8.7693263181       18.8166489932
  H        14.7515533521        4.6548591846        6.6052585806
  H        15.8616946085        4.5830015654        5.2047083378
  C        16.4224663289        5.9712848602        6.7634408522
  H         6.4663952568        7.4053493382        3.5500052993
  H         5.5962464482        5.8573219211        3.5987592591
  C         4.9506030532        7.0088000569        1.9246004987
  S        11.6960970578       -2.4829044310        1.2158320079
  N        12.0696181001       -2.0563889573       -0.3085503286
  C        12.3261690828        0.0526802809       -1.5175968085
  H        12.4150454037        2.1712987111       -2.1349654818
  C         5.7189565530        6.7503561146       19.6637291196
  N         5.9489289424        8.0436568655       19.9059138836
  O         6.4813157253        9.9376444549       18.8780843713
  H        16.8213574669        6.8557016785        6.2586628598
  H        15.9752097824        6.4062368651        7.6703850579
  C        17.4659308844        4.9544709284        7.2705846147
  H         5.5397895775        7.6505617951        1.3041209606
  H         4.6311679072        6.1788255425        1.2934460582
  C         3.7451226608        7.7789060587        2.4763370759
  C        12.7400466909       -0.6145472323       -2.7407422811
  S         5.4844110404        5.6663690893       20.9830814468
  C         5.9391606077        8.7539899817       21.2054163875
  H        17.1850190682        4.7685269250        8.3023881061
  H        17.3627991723        3.9819638343        6.8137271508
  C        18.8405850095        5.5356495378        7.2272000706
  H         3.6067270961        7.6575322961        3.5109455715
  H         2.8845201998        7.3462163934        2.0162945308
  C         3.8535286707        9.3310597926        2.2565145444
  H        12.4084582121       -1.6472211187       -2.6750651501
  C        13.3678223241       -0.2118736409       -3.8583606150
  H         5.8774569908        8.0328968779       21.9446289066
  H         5.1292902655        9.4237129731       21.1561832368
  C         7.2152883831        9.5715117931       21.4776473640
  H        19.4096027875        5.0499051268        7.9270133504
  H        18.8293198303        6.5355216379        7.5264266750
  C        19.5192119150        5.4386632049        5.8433083416
  H         3.0572165155        9.8332621792        2.6516360831
  H         4.8598994911        9.5959210471        2.6293207781
  C         3.7280193023        9.7055279287        0.7676224246
  S        13.8066075211        1.3550359007       -4.1684740418
  C        13.6794296704       -1.2167416339       -4.9530330755
  H         7.6758165194        9.2727672255       22.4036875159
  H         7.1048374179       10.6252705321       21.5121011200
  H         7.9938994643        9.3296857493       20.7282199906
  H        20.5695428792        5.4100171107        5.9405260527
  H        19.0955527998        4.7686546427        5.1378994826
  H        19.3070134966        6.4242101464        5.2893654650
  H         3.8261950955       10.7230170633        0.5541382842
  H         4.4896092582        9.1098781660        0.2177163744
  H         2.8364899762        9.2175708253        0.3778351375
  C        14.2907767179        0.7495497226       -5.7382594604
  N        14.1816729000       -0.5341181887       -6.0033467956
  O        13.4228768266       -2.3733862855       -4.8512192843
  S        15.1094232285        1.8145108696       -6.8881387955
  C        14.3639043395       -1.1556804891       -7.3405942237
  H        14.8295057979       -2.0781439296       -7.1571719882
  H        15.1729207322       -0.6336455522       -7.9385820497
  C        13.0665837838       -1.0710651619       -8.1207912296
  H        12.1885537810       -1.2123990710       -7.4981104945
  H        12.9791584616       -1.9121522163       -8.7644184937
  H        13.1669982975       -0.1528980424       -8.6037172102
  H        -2.4823111329       15.3640969671       16.8084703549
  C        -2.7553736816       14.2760658212       16.7940184645
  H        -3.8279525996       14.3327527886       16.8353154715
  C        -2.0364429266       13.5766806114       17.9803009934
  C        -2.4626199951       13.8440858137       15.3832541145
  C        -2.4342171210       14.1542006967       19.3624985625
  H        -2.1970971755       12.4427335924       17.9339263122
  H        -0.9853759426       13.8263642356       17.7482177163
  H        -2.9642938051       14.5055570830       14.6670574212
  H        -1.3820851623       14.0407158697       15.2712873244
  H        -2.6916247116       12.8508442369       15.1447156383
  C        -2.5115727684       13.0236994925       20.4071915668
  H        -3.3813492516       14.5643097813       19.4162019963
  H        -1.6853151109       14.9023508806       19.6534453618
  C        -2.8148558924       13.3941533082       21.8235150698
  H        -3.1966173282       12.2100790752       20.1794072169
  H        -1.5593895793       12.5286117439       20.2461434894
  C        -1.6710435844       12.8496708214       22.6965046123
  H        -3.8525899477       13.0253067921       22.1129721921
  H        -2.8645637086       14.4984651996       21.9379041495
  C        -0.4374530942       13.8296108456       22.8374388944
  H        -2.0831902252       12.6092401716       23.6657888988
  H        -1.2275496494       11.9340052460       22.2350802133
  C         0.7812200444       13.2080146437       23.6359909962
  H        -0.1274284346       14.0265537423       21.8012713099
  H        -0.8700975977       14.7520628756       23.2178030641
  C         1.1784814592       11.9258031303       22.8830968036
  C         0.4505167355       12.4443953058       24.8774507551
  C         1.9681763314       14.1572865867       23.7897501137
  C         1.0184828704       10.7948777535       23.6810787388
  C         1.5587342335       11.6018659737       21.6127654828
  C         0.5669194487       11.1026698092       24.9205434712
  C        -0.0431498627       12.9958803410       26.0928770434
  H         1.9664626248       14.8873923970       23.0081079175
  H         1.7358711285       14.8119174579       24.6435449425
  C         3.3227236360       13.4006213050       24.0250016070
  S         1.4720326091        9.3644038031       22.8644652604
  C         1.8156827065       10.2675222540       21.4541114448
  H         1.6642178860       12.3893933762       20.8753007443
  C         0.1551628630       10.3785646042       26.0252536407
  H         0.0369565278       14.0739084467       26.1241032349
  C        -0.3754001725       12.2604807749       27.1849727758
  H         3.4167498525       12.6867932338       23.2306191119
  H         3.2488047647       12.7707469076       24.9795267726
  C         4.5583810672       14.2319216366       24.1095240302
  C         2.2454198950        9.5483081486       20.2530324571
  C        -0.3136881873       10.9163705443       27.2481042669
  H         0.2491868555        9.3410977572       25.8827576449
  C        -0.8308903700       12.5825449361       28.4251337209
  H         5.3359825384       13.7737561268       24.7053367782
  H         4.3063367446       15.1480758701       24.5883890823
  C         5.1841588342       14.5379990746       22.7561795867
  C         2.2628756746        8.1531423669       19.9894036163
  C         2.7456721741       10.3554042257       19.1344163961
  C        -0.7010178723       10.1899092739       28.4517142059
  C        -0.9835675697       11.4922184331       29.2143865663
  S        -1.0363003209       14.0133280943       29.2545150501
  H         5.8986878345       15.2835537911       22.8750107556
  H         4.3559770700       14.8398155124       22.1533494819
  C         5.9229581192       13.4160604594       22.0788926403
  N         1.9028245867        7.1534701920       20.8727542476
  C         2.6283076478        7.6238611413       18.7681102025
  C         2.9819136463        9.8043896609       17.8589228712
  H         2.7577954765       11.4439288072       19.2521357870
  C         0.5625492503        9.3811536269       28.8258029833
  C        -1.9835759842        9.3208323658       28.3402365376
  C        -1.2516068306       11.8307647972       30.5097075109
  C        -1.3149494236       13.1788832603       30.7384593866
  H         6.9498538319       13.3619422655       22.3679037126
  H         5.4790479226       12.4993009112       22.4659596289
  C         5.8500133465       13.4874120098       20.5691800669
  S         1.9436518742        5.6741037442       20.1390928178
  N         2.3745112728        6.1945912639       18.6801762251
  C         2.9787425571        8.3247624473       17.5713608962
  H         3.4731456193       10.4128289914       17.0753483204
  H         0.8356700661        8.6476791638       28.1063002213
  H         0.2557668038        8.6881578672       29.5845268140
  C         1.8551301256       10.1664412893       29.1587582897
  H        -1.7509667824        8.4642879858       27.7434837633
  H        -2.0909861743        8.8318936507       29.3019130941
  C        -3.1635186230       10.2199145595       27.8549485008
  H        -1.2502359674       10.9574488928       31.1546573159
  C        -1.6509810509       14.0112265947       32.0101912284
  H         5.3252224543       14.3699442407       20.2050026538
  H         5.1571120777       12.6519074713       20.3786869305
  C         7.1406519948       13.1814684897       19.7700340518
  C         3.3465996399        7.6805858085       16.3915873372
  H         2.0453008117       10.8593255114       28.3380361024
  H         1.8598957384       10.7714986591       30.1016500998
  C         2.9393317931        9.1585484823       29.5200100732
  H        -2.9311924750       10.7706522275       26.9381646061
  H        -3.4142966922       11.0627221391       28.5363171648
  C        -4.3951552543        9.4182097405       27.5321508512
  C        -1.8482930719       15.4102737662       32.1038357385
  C        -1.7332842782       13.3130995916       33.3379997494
  H         7.9364217090       13.8147805677       20.2995628645
  H         7.4411150860       12.1683985910       19.9031835587
  C         6.9730165369       13.6102850849       18.3135978041
  H         3.1408530509        6.6041412466       16.3320464032
  C         3.6754565131        8.1440289594       15.1547018763
  H         3.2602753565        8.5869261564       28.6507515681
  H         2.5570705350        8.3370417941       30.1972945431
  C         4.2004105984        9.6115522758       30.1313009599
  H        -4.1543177386        8.8702521982       26.6160548050
  H        -4.8191217615        8.8167913186       28.3790904496
  C        -5.4898785893       10.3563291077       27.0588491334
  N        -1.4921677556       16.2882360077       31.0671457898
  C        -2.1531772917       16.1037590734       33.2522657898
  C        -2.1177929371       14.0017985572       34.5063692447
  H        -1.5483906677       12.2224725980       33.3816748339
  H         6.9385360178       14.7120096352       18.1699693718
  H         7.7176371062       13.1206259237       17.6663510727
  H         6.0213485580       13.2088021992       18.0230440790
  S         4.2592439653        9.7343826775       14.6958218689
  C         3.7280907827        7.2086083219       13.9834833256
  H         4.6321088532       10.4041554892       29.5646261418
  H         4.0284063000       10.1645641349       31.0164437354
  C         5.1846973929        8.4608299190       30.4536146567
  H        -5.0783916145       11.1460403887       26.5016289535
  H        -6.0155869342       10.6587897035       27.9571894118
  C        -6.5451887565        9.7103176022       26.2285557275
  S        -1.9558214088       17.8070652825       31.4916661884
  N        -2.1012726684       17.4571713595       33.0796789423
  C        -2.3713213290       15.4702991209       34.4722659474
  H        -2.2279478098       13.3875687560       35.4532588605
  C         4.4252432002        9.1155027304       13.0260618492
  N         4.1566112130        7.8428547064       12.8775337581
  O         3.5917828252        5.9788383126       14.0667566168
  H         6.1613840459        8.7204582451       30.1724859938
  H         4.9216639094        7.6059929546       29.7897515648
  C         5.2123082756        8.0227879248       31.9518332829
  H        -6.0315435288        9.2312915400       25.3905183086
  H        -6.9480864937        8.9432646964       26.8292627296
  C        -7.5617527912       10.5853724838       25.6408820613
  C        -2.6081540101       16.2368535255       35.5963303530
  S         5.0498880299        9.9277906645       11.6624661686
  C         4.1752116738        7.0658816566       11.6475560049
  H         5.5834344655        8.7903850022       32.5941105730
  H         4.1677602002        7.9425066634       32.3053994635
  C         5.9209110147        6.6878161513       32.0796792988
  H        -7.2268517958       11.3830226548       24.9887977781
  H        -8.0278138689       11.1284659788       26.4806205384
  C        -8.6409192958        9.7398913929       24.8929597428
  H        -2.3812529104       17.2537197284       35.4784719806
  C        -3.1547401857       15.8719965623       36.8014294204
  H         4.9052135221        7.5758709666       11.0276467779
  H         4.7392409336        6.1575897884       11.8925818428
  C         2.7498983438        6.6738205358       11.1973966652
  H         5.1523347778        5.9423888180       32.1392652034
  H         6.3287199580        6.6210067641       33.0690744213
  C         6.9462341600        6.3192392121       30.9296082475
  H        -8.7735865406       10.1508117371       23.8706830839
  H        -8.3496613076        8.7542970388       24.6797526402
  C        -9.8654972501        9.6132909256       25.7317879368
  S        -3.6327547918       14.2900772937       37.4560854700
  C        -3.2640084590       16.9461286092       37.7891720898
  H         2.5592971345        6.7382990545       10.1047304624
  H         2.5981731478        5.6597473257       11.5948508144
  H         2.0329047253        7.3330263870       11.6751684661
  H         7.5233074639        7.1788498462       30.7529970063
  H         6.4270341948        5.9226159970       30.1389091374
  H         7.6552750750        5.5686869557       31.3197983218
  H       -10.2597756392       10.5541471375       26.0814082330
  H        -9.6377036647        9.0047594184       26.5607525996
  H       -10.7160447511        9.1680336315       25.1900910727
  C        -4.0342610580       15.1503123141       38.9704165011
  N        -3.8346299842       16.4765652342       38.9723387071
  O        -2.8738025515       18.1161600216       37.5774141087
  S        -4.6358757142       14.5038059025       40.5065296738
  C        -3.9054786350       17.3555606771       40.1208753869
  H        -4.2908640743       18.2856983405       39.7402194116
  H        -4.7428180939       17.1356317467       40.8147955809
  C        -2.4728910717       17.4332682108       40.7171333755
  H        -2.2381098585       18.4598997060       40.9560687171
  H        -2.3738212177       16.9103389862       41.6358354512
  H        -1.6107653670       17.1822884820       40.0440639569
