352
i=
  H         3.8042611120        0.5742080756       12.1368469690
  C         3.4503288991        1.6257586016       12.1569264928
  H         4.3285761314        2.3345284509       12.0745094517
  C         2.5853679146        1.8823962585       10.9230565216
  C         2.6057354807        1.7425714778       13.4257769572
  C         3.3897440857        2.0127431161        9.6058451433
  H         1.9881930892        2.8349102943       11.0131972173
  H         1.8053758276        1.0979479860       10.8222084404
  H         1.6352472781        1.2448876150       13.3554007782
  H         2.3506392563        2.7150452594       13.6505683688
  H         3.0761240830        1.3066311931       14.2885557448
  C         4.3885618432        0.9290831069        9.2914736971
  H         2.6525363106        2.0864473841        8.7825269470
  H         3.8914985034        2.9717155273        9.5733085610
  C         5.1586833755        1.3134598276        8.1052281927
  H         3.9387485837       -0.0407094965        9.1789253650
  H         5.0671377344        0.8127370841       10.1341721908
  C         6.3275853419        2.2258698733        8.4401044518
  H         4.5511733018        1.9279393494        7.4028698968
  H         5.4969604676        0.3390200901        7.8379531383
  C         7.5742324037        1.5013143718        8.9175232279
  H         6.4753495697        2.9352990675        7.5722249248
  H         5.9546258209        2.7525803667        9.3131658703
  C         8.8061139626        2.3813307793        9.1100937340
  H         7.8705502373        0.6754038504        8.2503808686
  H         7.3366921219        1.0363448061        9.8116479027
  C         8.3774458912        3.6064746379        9.8574514272
  C         9.1269389695        3.1883168070        7.9483107036
  C         9.9962090503        1.7504649195        9.9035356606
  C         8.4789595740        4.8020914696        9.1453363655
  C         7.9348518394        3.9472756682       11.1583555568
  C         8.9537838244        4.5556389173        7.8828958625
  C         9.6720681411        2.6965141293        6.8250440543
  H         9.5641631072        1.4465089363       10.8817193328
  H        10.2756209159        0.9127631259        9.3089859221
  C        11.2160583163        2.5668687781       10.1279170360
  S         8.0253650247        6.1963516095        9.9632973571
  C         7.7346528622        5.3247723524       11.3549966165
  H         7.9116681148        3.2551835953       11.8847890984
  C         9.4055595994        5.2563804403        6.8095881538
  H         9.9823860484        1.6355033062        6.9328338905
  C        10.1254110148        3.3788822001        5.7090102003
  H        10.8702654430        3.5297053362       10.5248744418
  H        11.6110560598        2.6773489493        9.1412099877
  C        12.2434246510        1.9088127995       11.0503462052
  C         7.2821352594        6.0017376971       12.6123149252
  C        10.0782243165        4.7496686156        5.6388500549
  H         9.4436767511        6.3050571147        6.9372753493
  C        10.6028828125        2.9570782013        4.4821410053
  H        13.1110868661        2.5827718385       10.9650497138
  H        12.4431426864        0.9732586994       10.6720643057
  C        11.7848700010        1.8375971294       12.5123317938
  C         7.4413646574        7.4010107892       12.8782024858
  C         6.8120224143        5.1406115441       13.7666416261
  C        10.6636851326        5.4098292396        4.4483711775
  C        10.8984762902        4.0536911224        3.7414702808
  S        10.9076361880        1.4310237252        3.7142501661
  H        11.2937623677        2.7834116646       12.7679445732
  H        11.0945920607        1.1042064611       12.6044948067
  C        12.9143316809        1.6592782079       13.4272309379
  N         7.9374228344        8.3497612026       12.0551277499
  C         7.0599164983        7.9303339640       14.0644668827
  C         6.4294943272        5.7042120754       14.9674738470
  H         6.7685936797        4.0666999324       13.5584037328
  C        11.8964465334        6.3209411304        4.8320478162
  C         9.5918685125        6.2421044709        3.7222055146
  C        11.4273638744        3.6644991433        2.4523128387
  C        11.3546913876        2.2879925559        2.2647539477
  H        13.4386232978        2.5741689304       13.5399909685
  H        13.5030350374        0.7980976581       13.1580594768
  C        12.4076918519        1.3945516987       14.7956450763
  S         7.8103677611        9.7940464014       12.7300108522
  N         7.2548149760        9.3010386762       14.1416343008
  C         6.6438370788        7.1330738407       15.2130202555
  H         6.1014448850        5.0569325372       15.7581052648
  H        11.7096719988        6.9809835001        5.6462197326
  H        12.3165387737        6.8069556995        3.9384022033
  C        13.0536369700        5.5075550004        5.3110343395
  H         9.2985399497        6.8849028835        4.5616814130
  H        10.0989841767        6.8205409399        2.9487757888
  C         8.4433348130        5.4708093101        3.1565162414
  H        11.7379279620        4.4213704054        1.7353109495
  C        11.6354454225        1.5597509441        0.9545343025
  H        11.6547691974        2.0325487631       15.3000556336
  H        11.9875182355        0.4028190326       14.8417992839
  C        13.6143602738        1.1119889521       15.6069075300
  C         6.4483192412        7.8004598843       16.4107723167
  H        12.7699897172        4.8493645127        6.1010647784
  H        13.3163667479        4.8565339868        4.4222041030
  C        14.3272265325        6.2371945843        5.7482269937
  H         8.0462265340        4.9107892653        4.0335343502
  H         8.8336296716        4.8009879124        2.4291650402
  C         7.4190386767        6.4821518665        2.5868549481
  C        11.6534283799        0.1641975639        0.8359376551
  C        12.0429561948        2.3801539620       -0.1969519637
  H        14.4170336966        1.7651890904       15.3319117605
  H        14.0577316794        0.1144050083       15.5500934572
  C        13.3051494949        1.3412765250       17.1215858984
  H         6.8214994782        8.7919711378       16.4957901998
  C         6.0947624399        7.3625315235       17.6525055397
  H        14.2163032437        6.6950833270        6.6927358045
  H        14.5054404490        7.0215052987        5.0488951639
  C        15.5182105213        5.2780059077        5.7286564341
  H         7.1379951312        7.0942821720        3.4577635376
  H         7.9619732490        7.0588603280        1.8267477087
  C         6.1338710331        5.8356450982        1.9873476442
  N        11.4065284288       -0.7686485373        1.8650435770
  C        11.9607575147       -0.4185698714       -0.3502690897
  C        12.3571579167        1.7941295255       -1.4453566500
  H        11.9235076713        3.4083862454       -0.1371442083
  H        12.6566028859        2.1720369041       17.2946048762
  H        14.1951340714        1.4491224826       17.7191832024
  H        12.7180169549        0.5310392343       17.4175563000
  S         5.8347228278        5.7235771136       18.1637250781
  C         6.0392625174        8.4100064321       18.7570591152
  H        15.4817944696        4.4645911723        6.3606407424
  H        15.4569772296        4.8697561548        4.7020572853
  C        16.8368522465        5.9855846271        6.0241454821
  H         5.5816992123        5.3609630714        2.8596229751
  H         6.4008296369        5.0996541138        1.2117601433
  C         5.2114062792        6.8061921626        1.2700728911
  S        11.5019266619       -2.2340093011        1.2998507737
  N        12.0424154056       -1.8105138849       -0.1482588190
  C        12.3571617491        0.3066945040       -1.5027241211
  H        12.5119142950        2.4540456927       -2.2909257724
  C         5.6883217450        6.4230178834       19.7956383153
  N         5.7795199416        7.7622020728       19.9131420059
  O         6.2509462946        9.6387655999       18.5858021824
  H        17.1395447346        6.4525300968        5.1014673250
  H        16.5517956274        6.7938094741        6.7460552886
  C        17.9247007365        5.1064015486        6.5389463457
  H         5.8839587166        7.3314007040        0.5665901617
  H         4.4515538728        6.1864589260        0.6798898290
  C         4.4673154856        7.7318232524        2.2844715874
  C        12.8152753070       -0.4805788080       -2.5797339131
  S         5.4562726681        5.5847744894       21.3101501885
  C         5.8147797973        8.5603622862       21.0991151705
  H        17.6097626628        4.6459877274        7.5101567220
  H        18.1862667639        4.3349969004        5.7616231084
  C        19.1805484068        5.9616867197        6.8492494288
  H         4.9008949263        7.5667594737        3.2336445124
  H         3.4143901696        7.3937482194        2.3466447577
  C         4.6653732297        9.2022102487        1.9648298868
  H        12.7388063155       -1.5426389536       -2.5546161463
  C        13.3211205674       -0.1498315530       -3.8236454196
  H         5.3566426045        8.0541888708       21.9953078336
  H         5.1793195769        9.4456176471       20.9617487586
  C         7.2720079015        8.7168724596       21.5795843829
  H        19.7779269803        5.4952121938        7.5932751418
  H        18.9615676490        6.9038783147        7.3330429515
  C        19.9964921349        6.2139932802        5.5794025212
  H         4.2005084702        9.7972225335        2.7134551444
  H         5.6567939521        9.4587484094        2.1004076853
  C         4.3249514922        9.6564356358        0.6280212749
  S        13.7256124153        1.4551769170       -4.4118887241
  C        13.4447016401       -1.1923723257       -4.8313319816
  H         7.9732195320        8.9191295422       20.7993126052
  H         7.5468509710        7.8810234164       22.2956767687
  H         7.3652578200        9.6798586788       22.1035258566
  H        19.3927265465        6.5524708918        4.6927170930
  H        20.7844693825        6.8678950203        5.7898003709
  H        20.5443874991        5.3372480378        5.3229838909
  H         4.7737871840       10.6895283198        0.4674889967
  H         4.7430623586        9.0202503041       -0.1572965279
  H         3.2432311539        9.6223723869        0.4554179025
  C        14.0946905295        0.7819942248       -5.9163538886
  N        13.9804678687       -0.6022367078       -5.9698028497
  O        13.1331001487       -2.3644399324       -4.6602485293
  S        14.6542901484        1.5825291364       -7.3493394106
  C        14.0588518240       -1.3369860908       -7.2153738337
  H        14.2737656387       -2.3601434345       -6.9312835016
  H        14.7507311810       -1.0177973706       -8.0090335986
  C        12.7646724704       -1.2148264196       -7.9572299867
  H        12.4695122370       -0.2126871658       -8.2368824594
  H        11.8564276581       -1.6082804199       -7.4219302960
  H        12.8924553807       -1.5801774351       -8.9738243948
  H        -4.4716054121       14.0832457569       16.6598962647
  C        -3.7022272423       13.3781693839       16.3336061326
  H        -4.2498176215       12.4658795394       16.3901285550
  C        -2.6208234534       13.1483814548       17.4096071826
  C        -3.1653586660       13.5415029789       14.9249681803
  C        -3.2262174645       13.1587579359       18.8257109742
  H        -2.1127678642       12.1669364755       17.3797440481
  H        -1.8849383856       13.9616962486       17.2723883320
  H        -2.8191893356       14.4448564133       14.6250951060
  H        -2.3105654835       12.9247356859       14.7704492637
  H        -3.8975382933       13.3165175382       14.1623093861
  C        -2.3115744624       12.5895422732       19.9113898064
  H        -4.0375937602       12.4931625498       18.8339369308
  H        -3.6230750111       14.1712230216       19.1207012468
  C        -2.6361917779       13.0447037958       21.3052491195
  H        -2.3354959151       11.5061674761       19.8926376097
  H        -1.2034880872       12.8321952522       19.6673047913
  C        -1.4715677747       12.4505452286       22.2207211460
  H        -3.6361863451       12.5992034025       21.6315795461
  H        -2.6619623403       14.0906341066       21.3385644366
  C        -0.3085413164       13.3964502288       22.4786501539
  H        -1.8916408809       12.4198637893       23.2133869667
  H        -1.1070968262       11.4607481346       22.0857220336
  C         0.9171114642       12.7924022629       23.2917886782
  H         0.0105830738       13.7565751988       21.5153228253
  H        -0.5859443328       14.3719325826       22.9204126925
  C         1.3962501639       11.4420190297       22.6251304346
  C         0.5873994413       12.1156438512       24.5736830825
  C         2.0949988002       13.7588444115       23.5507039897
  C         1.1256628026       10.3393162235       23.4216415603
  C         1.9551144891       11.0039277021       21.4162381693
  C         0.6009319598       10.7772221639       24.6112191016
  C         0.1962911157       12.7385207345       25.7216872445
  H         2.2346269683       14.2105212367       22.5294397031
  H         1.7854130359       14.5609387629       24.2930706283
  C         3.4190402898       13.1086052833       24.0734518135
  S         1.4172144134        8.7644839815       22.8095666795
  C         1.9681962487        9.5969319874       21.3579770514
  H         2.2052755130       11.7290047343       20.6054116413
  C         0.1332953706       10.1492702757       25.7373142985
  H         0.1441181107       13.8208803461       25.7015382558
  C        -0.3076936969       12.1128995366       26.8856915153
  H         3.7937241020       12.4309246031       23.3757685882
  H         3.1160055594       12.5206701997       24.9041341010
  C         4.4760813297       14.1529368632       24.4477200615
  C         2.3301831459        8.8981917087       20.0759783627
  C        -0.3760588253       10.7642806492       26.9067390850
  H         0.1119221207        9.1228701229       25.6734190548
  C        -0.8588483757       12.4398846494       28.0800544065
  H         5.1898166430       13.9330508697       25.2089329004
  H         3.9214272244       14.9229768793       24.9434429305
  C         5.0776683779       14.7704279675       23.1796694478
  C         2.2168358868        7.5267319140       19.8586958912
  C         2.6916980597        9.7491065698       18.9249003201
  C        -0.7915037557       10.0329910228       28.1667742943
  C        -1.0377286136       11.3485213460       28.8934900163
  S        -1.1339748129       13.8994945072       28.8513322116
  H         5.5433245207       15.7575389786       23.4038861179
  H         4.3274678207       15.0000531987       22.4042595086
  C         6.2561904733       14.0300095742       22.5687616765
  N         1.9487339071        6.6222200377       20.9041494721
  C         2.4988988143        6.9284133251       18.6180108190
  C         2.7553664028        9.1435853117       17.6862359406
  H         2.7770962234       10.7855460892       18.9457784791
  C         0.4824355024        9.1870548075       28.6954039812
  C        -2.0756112389        9.1915116435       28.0236724853
  C        -1.6064043576       11.7371925502       30.1557371451
  C        -1.6300199351       13.1142257402       30.2567791994
  H         6.8282103529       14.8980978577       22.1990289188
  H         6.8102470639       13.4920816823       23.4098060867
  C         5.6979832543       13.0363904026       21.4902579809
  S         1.9950982578        5.1607149301       20.1515473696
  N         2.4332135446        5.5489712683       18.6664361599
  C         2.7623481519        7.6613423117       17.4771135670
  H         2.8850526259        9.7853124763       16.8199069060
  H         0.7054972948        8.3070106710       28.1323712511
  H         0.1854575758        8.7410021665       29.6421471540
  C         1.7063430380       10.0338158740       28.8639222894
  H        -1.9261809934        8.4765173908       27.1578612353
  H        -2.0875651547        8.7321520458       29.0255623094
  C        -3.3326721791        9.9829829940       27.7351121436
  H        -1.6836493010       10.8930919554       30.9031758602
  C        -1.9267838262       13.8947718262       31.5297982700
  H         4.6349351125       13.2070660663       21.4316154174
  H         5.9333286925       11.9868031587       21.7978692831
  C         6.2436114026       13.3066145458       20.0793494542
  C         2.8950522771        7.0158659608       16.2452722018
  H         2.1379469551       10.1612751495       27.8748330929
  H         1.5891423357       11.0885202210       29.1193072510
  C         2.6261645273        9.2625821316       29.8415097966
  H        -3.0935255283       10.5386272149       26.8199721587
  H        -3.6673200191       10.6458869486       28.4888314712
  C        -4.5144866987        9.0983985148       27.4173532222
  C        -1.9668720373       15.2713266232       31.6580453664
  C        -2.1306711138       13.1462692648       32.7468649413
  H         5.6993640445       12.5036804317       19.5933750726
  H         5.8781721102       14.1885767271       19.7303146840
  C         7.7441428574       13.2193374802       20.0930142146
  H         2.7014517219        5.9621059976       16.3181269561
  C         3.2044248361        7.4091395786       14.9987681898
  H         2.7586327030        8.3161949997       29.3661524798
  H         2.1798417280        9.0813829350       30.8340682771
  C         3.9848608618        9.9201501666       29.9695955956
  H        -4.1897664133        8.2765147240       26.7184229656
  H        -4.8927698071        8.5285954358       28.2561854302
  C        -5.5341497967       10.1653775272       26.9778342325
  N        -1.9046602833       16.1799142547       30.6040198775
  C        -2.1771120766       15.9431984963       32.8521512061
  C        -2.4535764481       13.7722123014       33.9711219230
  H        -2.1324725713       12.0318992932       32.6678665160
  H         8.1953534943       12.8089635362       19.2047197025
  H         8.0794748851       14.2363780740       20.3532417482
  H         8.0051917385       12.5710701144       20.9106908262
  S         3.4935333362        9.0332551096       14.3376010895
  C         3.1198899788        6.3890004463       13.9048908791
  H         4.0880682562       10.5597065875       29.1337861498
  H         3.9411514981       10.6835724003       30.7774789569
  C         5.1111396707        8.9141829810       30.0735892217
  H        -5.0917580746       10.8569454668       26.2369953222
  H        -5.8406309497       10.8253715995       27.8419248941
  C        -6.7978522482        9.5176222798       26.4626274887
  S        -2.1070464775       17.6573638255       31.1481614196
  N        -1.9599641800       17.3013603936       32.6611254970
  C        -2.4400114311       15.2732045126       34.0999618675
  H        -2.6173077061       13.2419613840       34.8388778794
  C         3.4570056865        8.2004654008       12.7680999350
  N         3.2880600825        6.8845842515       12.7204473842
  O         3.0394400459        5.1644071068       14.1381985380
  H         6.1229629802        9.4061001140       29.8819219090
  H         5.0226663874        8.2629910988       29.2438993049
  C         5.1167327602        8.1037680418       31.4093624833
  H        -6.5697681850        8.5538894184       25.9778763469
  H        -7.4937054047        9.2613714486       27.2592708565
  C        -7.5956539980       10.4409892923       25.5170617390
  C        -2.7764591701       16.0694663480       35.2138677914
  S         3.6755092378        9.0038867978       11.2075926488
  C         3.2101294619        6.1379861849       11.4869744353
  H         5.9006706268        8.5129351824       32.0758201520
  H         4.1695977762        8.2156812394       31.9867665932
  C         5.4240425290        6.6352686953       31.3153563380
  H        -7.0530852787       10.5719513555       24.5690049624
  H        -7.7403695946       11.4988231817       25.9435528380
  C        -8.9405676253        9.7054956851       25.0999533932
  H        -2.4787280009       17.1170079368       35.1227975881
  C        -3.2136590702       15.8653345563       36.4948792008
  H         3.9067723039        6.6044713859       10.7170533572
  H         3.5050209428        5.0887755811       11.6184843611
  C         1.8499127560        6.2099989945       10.8478773250
  H         4.9414643912        6.1205255026       30.5320824431
  H         5.0894281181        6.1698578275       32.1869473891
  C         6.8726514625        6.2525409532       31.0833696739
  H        -9.2718433714       10.3581220031       24.2942937015
  H        -8.6628117357        8.7665488939       24.6302228347
  C       -10.0546349366        9.6374202272       26.2181538582
  S        -3.7801552705       14.3744819015       37.1451899182
  C        -3.2898659991       17.0840213078       37.4104981085
  H         1.5980034196        5.2019338396       10.5871221128
  H         1.0786352013        6.7569513657       11.4612456689
  H         1.8460272441        6.6785131425        9.8938444463
  H         7.0596427937        5.3139677692       31.5806271182
  H         7.5614228925        7.0338741320       31.4070972439
  H         7.2275899400        6.2124270356       30.0464529677
  H        -9.9858733993        8.7881545389       26.8501531341
  H       -10.9950675053        9.5636484529       25.7001745349
  H       -10.0493135428       10.4721577918       26.8936094836
  C        -4.2155545650       15.3636613789       38.6233974743
  N        -3.8987493416       16.6641598467       38.5609566456
  O        -2.8678376793       18.2006800265       37.1960974009
  S        -4.8330148857       14.7106275275       40.1036695591
  C        -4.0401149382       17.6416500501       39.7050363824
  H        -4.3642952609       18.5643172736       39.1643098811
  H        -4.9659671138       17.4597537984       40.3079379707
  C        -2.7537697923       17.7747084462       40.4276624321
  H        -2.3785800219       16.7923298547       40.5834822713
  H        -2.0007057361       18.3340641197       39.8419004496
  H        -2.9907738385       18.0947388648       41.4824295016
