352
i=
  H         2.1882132387        3.6590753491       12.3083726347
  C         2.7419625242        2.7902652703       12.5657629125
  H         2.2607024694        1.9625844720       12.0890556496
  C         4.1859920087        2.9824410739       12.1745309684
  C         2.5341892881        2.7016784312       14.0684445254
  C         4.4338217369        3.1075710468       10.5994637081
  H         4.6584242580        2.0594773442       12.4419162835
  H         4.7484198416        3.7574876427       12.6779113281
  H         1.8343594579        3.4340891960       14.4284196042
  H         3.4740527163        2.9836834096       14.6196302001
  H         2.2633978075        1.7089186581       14.4085178236
  C         4.7186038601        1.6577190503       10.0015148944
  H         3.5589743993        3.5502150114       10.1328774391
  H         5.2943384008        3.8016014114       10.5103183508
  C         5.4427954429        1.6143573397        8.5760561239
  H         3.8147649814        1.0308260479       10.1109040513
  H         5.4952744091        1.3292297555       10.6804469961
  C         6.7140843281        2.3973249182        8.5514230009
  H         4.7653350115        1.9042978718        7.7922611494
  H         5.7060922462        0.5854846856        8.3999616048
  C         7.9838645092        1.7511363288        9.0829681944
  H         6.9815203051        2.5594376296        7.5661186672
  H         6.5890594786        3.3886638087        8.9779338935
  C         9.1560795754        2.7565513486        9.3680758599
  H         8.3477825952        0.9986336241        8.3062177181
  H         7.8369872043        1.1203385824        9.9808586210
  C         8.9020051240        4.0503021222       10.0084525347
  C         9.7313035941        3.3984179373        8.1322394171
  C        10.3588246906        2.0808011590       10.0791778513
  C         9.1759020184        5.1905335199        9.1885140415
  C         8.4129456479        4.4384126450       11.2652225339
  C         9.7238161613        4.7729569042        7.9904091809
  C        10.1645822530        2.7087209312        6.9657888955
  H        10.0057155311        1.7600497178       11.0580574592
  H        10.6039925517        1.1429418642        9.6761848095
  C        11.6437214254        2.9393140873       10.1497069001
  S         8.9186019223        6.7344221227        9.9609282303
  C         8.2007214586        5.8200312034       11.2723663542
  H         8.1708893187        3.6338829592       11.9602122368
  C        10.2116433574        5.3265810606        6.7974110880
  H        10.0819784206        1.5822491999        6.9128308283
  C        10.5847967020        3.2940871011        5.7854686448
  H        11.3793802831        3.9609656196       10.4353428440
  H        12.0993089776        2.8821749077        9.1840728404
  C        12.5818638778        2.3318687987       11.2645657300
  C         7.5996268030        6.5211237919       12.4766057601
  C        10.5767173137        4.6549713431        5.6028789416
  H        10.3124391079        6.4118846583        6.8464201597
  C        10.9751443966        2.8173992041        4.5081238711
  H        13.6846359016        2.5988432586       11.0658436499
  H        12.4706489450        1.3064073576       11.1481995088
  C        12.2456237532        2.7055680581       12.6550021282
  C         7.5706664965        7.9395932425       12.7140309706
  C         7.2079637637        5.6857657291       13.6470104885
  C        10.9876234839        5.2708435700        4.2928577686
  C        11.2926019633        3.8489199961        3.7084886492
  S        11.2696745703        1.2625024432        3.8514680547
  H        12.1266221542        3.7715164016       12.6923432992
  H        11.2805844706        2.3144671180       12.9460059215
  C        13.3548262421        2.1733087537       13.6426191069
  N         7.8902171606        8.8517818835       11.7075743681
  C         7.2447263080        8.4921352408       13.9290481929
  C         6.9147365801        6.2925783411       14.8705067951
  H         7.0679354204        4.6546792226       13.5744795821
  C        12.3080842069        6.0636721464        4.4280851699
  C         9.8821015000        6.0640125419        3.5494681881
  C        11.6681363041        3.4442977682        2.4358615942
  C        11.7688159902        2.0737342008        2.3632756158
  H        14.1719978665        2.9009539108       13.5112042811
  H        13.8340209653        1.2943875768       13.3614674563
  C        12.8795653544        2.1454819129       15.1112776673
  S         7.8016482236       10.3203058274       12.3605858665
  N         7.3085373763        9.9039827385       13.8583449574
  C         6.9127612085        7.7290940165       15.0835033222
  H         6.7430911511        5.7056060724       15.6864117272
  H        12.3694997627        6.7532355964        5.2700110968
  H        12.4555110285        6.4743316839        3.4505545161
  C        13.5033545097        5.2264472064        4.6815928427
  H         9.5369753854        6.8057569196        4.2723501740
  H        10.3088264956        6.7717472690        2.7887683645
  C         8.7363301626        5.2327508708        3.0565530105
  H        11.7738315416        4.2203799844        1.7156259225
  C        12.0881538303        1.2887395435        1.1201594248
  H        12.1057025030        2.8982773695       15.2724001392
  H        12.3789686112        1.2221661660       15.3259413429
  C        13.9193005665        2.3794296434       16.2367605109
  C         6.8018545638        8.4384580202       16.2992519962
  H        13.3591444632        4.5995113655        5.5607307558
  H        13.7184924082        4.5404508079        3.8526116896
  C        14.8276402516        6.0887125269        4.8085726705
  H         8.2084140785        4.6847020952        3.8766215671
  H         9.0427388095        4.5705036730        2.2570640769
  C         7.6781114858        6.1883650208        2.4385438075
  C        12.0186043633       -0.0925433937        0.9800609255
  C        12.1763621202        2.0592971558       -0.1116429662
  H        14.6323824911        3.1400381770       15.9299817384
  H        14.4824469372        1.3931415664       16.4119398523
  C        13.1609213460        2.6257987215       17.5940825207
  H         7.0522550221        9.4784394069       16.1859881060
  C         6.4223231051        8.0574312288       17.5941056302
  H        14.7963599648        7.0647047724        5.3738381266
  H        15.1800768973        6.4292983120        3.8199123273
  C        16.0133314487        5.3613773657        5.4351029102
  H         7.2939403501        6.8671543455        3.1927893062
  H         8.1990777965        6.8243296172        1.6531941821
  C         6.4797005057        5.5384500858        1.8513189148
  N        11.7555633598       -0.9921980146        1.9966283667
  C        12.3253987112       -0.7232975565       -0.2029932964
  C        12.4738510923        1.4485029830       -1.3311521501
  H        11.9973877169        3.0885974279       -0.0717119527
  H        12.7232097381        3.6288702464       17.7053719117
  H        13.8507360453        2.6329822109       18.3789480802
  H        12.3470032830        1.9149467959       17.7460921055
  S         6.1450480820        6.4927638920       18.0786518483
  C         6.2657533982        9.1281001896       18.5998629591
  H        15.5895455012        4.6983933416        6.1354390370
  H        16.6095487740        4.8038484643        4.6745279358
  C        16.7385780019        6.2130093911        6.4247645085
  H         6.2509227568        4.5207812240        2.3350374655
  H         6.7057409290        5.2488047570        0.7849339332
  C         5.3291784672        6.5622264632        1.9567542888
  S        11.8052478268       -2.4739287228        1.4119088562
  N        12.2560007724       -2.1191614340       -0.0737391486
  C        12.5352713646       -0.0138272137       -1.4201385464
  H        12.5040288148        2.0468823887       -2.1945497660
  C         5.8741049093        7.1322535798       19.6993492980
  N         6.0052258974        8.4790806251       19.7840203324
  O         6.4646471428       10.3310975507       18.4356884968
  H        17.2661034297        7.0660849669        5.9508633368
  H        16.0450084513        6.6020867596        7.1237876971
  C        17.7626284787        5.2838202838        7.1754169491
  H         4.5180328108        5.9756009090        1.6412893694
  H         5.0663180646        6.8333005924        3.0245699244
  C         5.4430839488        7.7780505988        1.0725172900
  C        12.6852194785       -0.7559682948       -2.6513320726
  S         5.0653514791        6.3503673588       21.0034958524
  C         5.9101496263        9.1515462534       21.0679476380
  H        17.4560571838        4.9512100456        8.1237035878
  H        17.7685252116        4.3272003900        6.7021734945
  C        19.1171287817        6.0076695200        7.4061802124
  H         5.4393220238        7.4408744319       -0.0204951164
  H         6.3933989696        8.2637910249        1.2321096613
  C         4.4286350695        8.8805742133        1.3160973748
  H        12.3563623737       -1.7746216206       -2.5787176562
  C        13.2451352285       -0.3504946400       -3.8368713099
  H         4.9462735927        9.0493922672       21.5728056310
  H         5.9029462465       10.2338921007       20.8692332772
  C         7.0705609730        8.9718373966       22.0354804821
  H        19.6984838313        5.3912659106        8.0597487775
  H        18.9378111394        6.9674081269        7.9293440157
  C        19.9122313721        6.0968510870        6.1202438064
  H         4.4782750172        9.5537336333        0.4993970324
  H         3.4187255884        8.5049405711        1.3305583866
  C         4.5666892940        9.5127142502        2.7046482849
  S        13.6976727678        1.2607043661       -4.2504996581
  C        13.3567194367       -1.2553152391       -4.9544161346
  H         6.8966006064        8.2805430586       22.8909046417
  H         7.4947858435        9.9611735428       22.3368264120
  H         7.7625998517        8.4031589400       21.4213703123
  H        19.9688097649        7.1235247372        5.6461341168
  H        20.9379143135        5.8614513370        6.2870378533
  H        19.5688362665        5.3580609884        5.3928193092
  H         3.7939184112       10.3096083034        2.8064999296
  H         4.3102656097        8.7218121999        3.3499976243
  H         5.5014951155        9.9614501058        2.9527473416
  C        14.1412362763        0.6713783679       -5.7990714440
  N        13.9860359771       -0.6722132460       -5.9590870241
  O        13.0229226392       -2.4328151894       -4.9689251147
  S        15.0070815792        1.5712433825       -7.0167984615
  C        14.0716711465       -1.3958498736       -7.1524815224
  H        14.3407807966       -2.4326191346       -7.0253899138
  H        14.9669436501       -0.9739009835       -7.6562853178
  C        12.7896800734       -1.2573718402       -7.9336997023
  H        11.8929994008       -1.1305798459       -7.3103851014
  H        12.7898948700       -2.1104492619       -8.6550576557
  H        12.8806142587       -0.3570922635       -8.5593475600
  H        -4.0127895770       14.8943979125       16.3648136248
  C        -3.5239524252       13.8955588142       16.3690743328
  H        -4.3517808000       13.2726852877       16.7027915936
  C        -2.3782038619       13.9962315434       17.4570211687
  C        -2.9566165544       13.5857217809       15.0008864262
  C        -2.8621662849       14.1402544870       18.8550728132
  H        -1.6165298919       13.2498886373       17.3655290918
  H        -1.7930842105       14.8947655953       17.2492164684
  H        -1.8869937405       13.5169403036       15.0498187617
  H        -3.2491571390       12.7146072673       14.4879943241
  H        -3.2343437432       14.4182122672       14.3425675037
  C        -1.7523099233       13.9543364607       19.9797471904
  H        -3.7243790480       13.4442069184       19.0630487856
  H        -3.3266528919       15.1482061136       18.8867778575
  C        -2.2025068062       13.7198794706       21.4078579159
  H        -1.1526420021       13.1379041420       19.6542527829
  H        -1.0681400021       14.7851913907       19.9025138136
  C        -1.1755067759       12.9816529099       22.2148739402
  H        -3.0576713946       13.0542054740       21.3325199631
  H        -2.5847529406       14.5591092649       21.9319261195
  C         0.1283227123       13.7492973972       22.3818621576
  H        -1.5310053159       12.8008479515       23.1785145244
  H        -1.0855737776       12.0692123316       21.7000560104
  C         1.2703438745       13.1343075298       23.2413235255
  H         0.5119953729       13.7432946286       21.3198326653
  H        -0.1580337125       14.7546255586       22.4126743504
  C         1.6081376123       11.7691577923       22.5606482246
  C         0.8263148574       12.4253373313       24.4981199358
  C         2.4668788453       14.0738359579       23.3571361376
  C         1.2870659938       10.7021382156       23.3510423154
  C         2.2380433735       11.3492104219       21.4417778766
  C         0.8882076959       11.0903748319       24.6597507920
  C         0.4898699396       13.1133622453       25.7257783529
  H         2.6067765090       14.6302010602       22.4063331361
  H         2.2234801581       14.8460035753       24.1343561593
  C         3.8701157175       13.4260930583       23.6215042085
  S         1.7003691281        9.1194838745       22.6729232895
  C         2.3202260009        9.9883331666       21.3326542094
  H         2.5326851870       12.0830197845       20.7250640460
  C         0.6482135459       10.4577861604       25.8158155104
  H         0.2769359955       14.1752019885       25.6847870494
  C         0.0973026752       12.4217759342       26.9001086771
  H         4.1728740461       12.9683197046       22.7197431444
  H         3.8135518898       12.7633032119       24.4623247805
  C         4.9043177330       14.4011133469       23.7847758915
  C         2.5606665454        9.3297358654       20.0496884476
  C         0.1419723579       11.0664978202       27.0053676995
  H         0.6251480327        9.3568110267       25.9087311020
  C        -0.3584688891       12.7334726539       28.1497468286
  H         5.7443975855       14.0512069507       24.3877301448
  H         4.5898100819       15.2931412897       24.4211547393
  C         5.3448235470       14.8993531337       22.3355350023
  C         2.3548457832        7.9629395560       19.7419944338
  C         3.0085319246       10.1455496058       18.8966228317
  C        -0.3017251547       10.3531638504       28.2947077147
  C        -0.6455395440       11.6356916507       28.9423545987
  S        -0.6819652452       14.2249183862       28.9395665430
  H         5.6246528188       15.8951567812       22.4856089311
  H         4.5432245046       14.8536269605       21.6085892333
  C         6.4833586344       14.0768827469       21.8193635940
  N         1.8333111606        7.0848467073       20.6432379015
  C         2.5609836855        7.4267032053       18.4939055831
  C         3.2037564399        9.6350303202       17.6305711798
  H         3.4767486396       11.0731295963       19.1614596754
  C         0.9130680081        9.6434336208       28.9829891844
  C        -1.4734408608        9.3681665816       28.0485466850
  C        -1.1636375888       12.0392768619       30.1970370602
  C        -1.1242960761       13.3782843593       30.3808184188
  H         7.1497185265       14.8582202070       21.3744513840
  H         6.9127005999       13.4258132570       22.5945673810
  C         6.1221013774       13.1382149868       20.6381631538
  S         1.5978466589        5.6897792394       19.8988788884
  N         2.1654725114        6.0804570099       18.3917637499
  C         2.9940033528        8.1996264280       17.3689435193
  H         3.5585035548       10.1996198122       16.8549019218
  H         1.3841136747        8.8664437798       28.3221123369
  H         0.4626259873        9.1371725894       29.8586164647
  C         2.0754126505       10.5518406041       29.4912547343
  H        -1.1960045608        8.7021521957       27.3017989479
  H        -1.7406539365        8.7526758099       28.9101423351
  C        -2.7866321118       10.0006034148       27.5764306319
  H        -1.3700246110       11.3101794376       30.9042691386
  C        -1.5679285722       14.1328452080       31.6438106658
  H         5.2769805610       12.4172511485       20.9172075042
  H         6.8923882049       12.3953692116       20.6093801672
  C         6.0453405011       13.6248888719       19.1743246690
  C         3.3214732674        7.5195182872       16.1479905366
  H         2.3084988987       11.1996182859       28.5757872254
  H         1.6809718302       11.1726167292       30.3779513224
  C         3.2774870553        9.7444167138       30.0405580052
  H        -2.6789807048       10.4980285495       26.6592526139
  H        -3.1890413485       10.6735327573       28.3195313975
  C        -3.7989716845        8.8908938625       27.2907221046
  C        -1.5007795894       15.5562725683       31.7914595237
  C        -1.9508196512       13.4979239549       32.8968784283
  H         6.5681272085       14.6378868385       19.1544872987
  H         6.6467817446       12.8766824806       18.5255988575
  C         4.6526472010       13.7534883040       18.6084633512
  H         3.2472634328        6.4307513446       16.1664080344
  C         3.6737642036        8.0370119520       14.9093547148
  H         3.4944994776        8.9106546819       29.3808505705
  H         2.9625551606        9.2990938483       30.9620269908
  C         4.5665055212       10.5838716890       30.3335619558
  H        -3.4920233985        8.3035865859       26.4004351200
  H        -3.6771129229        8.1138401372       28.0785556465
  C        -5.2592761738        9.2576678058       27.1849376132
  N        -1.1503389379       16.4634738942       30.7758154831
  C        -1.8335612937       16.1964893241       32.9693667006
  C        -2.2841316956       14.0943589070       34.1104570373
  H        -2.0187693780       12.4406478863       32.8448096557
  H         4.5937655839       14.3843630688       17.7477964446
  H         4.1926082486       12.7798872419       18.2430206882
  H         3.9177580066       14.1127579334       19.2904357906
  S         3.8918516070        9.6762551160       14.4147781978
  C         3.6143235805        7.0150158589       13.8013553603
  H         4.6519163022       11.5580323639       29.8411901993
  H         4.5223140460       10.9538631243       31.3686522831
  C         5.8341157758        9.8745430559       29.9015625814
  H        -5.5086218504        9.9212789689       28.0016399979
  H        -5.9465051656        8.4253844755       27.3800575266
  C        -5.6306611357        9.8561862750       25.8465374246
  S        -1.2286467838       17.9846970491       31.4208756378
  N        -1.7902527832       17.5644681857       32.8624930009
  C        -2.2992712095       15.5699582804       34.1809767267
  H        -2.4429826722       13.5291050193       35.0512073515
  C         3.9722258661        9.0494266977       12.7279652343
  N         3.8486735168        7.6992276158       12.6917622333
  O         3.5005636104        5.7855579188       13.9553292104
  H         6.6274824981       10.5792841057       29.7921722575
  H         5.6769133367        9.4330147748       28.9358830675
  C         6.1572131734        8.6803312585       30.8926527296
  H        -4.8709021875       10.6460675619       25.7415194298
  H        -5.5598409283        9.1360171922       24.9831862339
  C        -6.9202322145       10.6071797271       25.7708515241
  C        -2.5155453204       16.3352252641       35.3189123601
  S         4.3699002194        9.8481037688       11.2537059296
  C         3.7100440969        7.0097001145       11.4346961350
  H         6.7714035243        9.0348819576       31.7289224313
  H         5.2936525719        8.2872942100       31.4547302807
  C         6.8941642283        7.5299076366       30.1513776163
  H        -7.2162974869       10.6797312885       24.7621878589
  H        -6.5878131753       11.6504352073       25.9721168406
  C        -8.0258093941       10.2124829201       26.7498993494
  H        -2.2700163434       17.4104448344       35.3544758361
  C        -2.9285979651       16.0550766609       36.6147794562
  H         4.3580983565        7.3835072963       10.6390360125
  H         4.0688536418        6.0647214145       11.5811845668
  C         2.1829464267        7.0332524450       10.9650480152
  H         7.9169649909        7.5889413400       30.3986154726
  H         6.7741839419        7.5797322238       29.1107913286
  C         6.5053024345        6.1421348207       30.6402460455
  H        -8.2487062244        9.1447824109       26.8041953933
  H        -7.8579661896       10.6837389938       27.7473409495
  C        -9.4055949648       10.7337245763       26.2305245682
  S        -3.4700312239       14.5559252457       37.1676874924
  C        -3.0403758332       17.1490770279       37.6328545308
  H         1.5288649014        6.8249245147       11.8640169037
  H         2.0103532575        7.9694955443       10.5162187622
  H         1.9828109357        6.2819759196       10.1751044716
  H         7.2797362861        5.3357236213       30.3564120796
  H         5.6743137123        5.6930145298       30.0780884912
  H         6.2382118877        6.0627372559       31.6837830181
  H       -10.0171935957        9.8616317625       26.0913783380
  H        -9.3459632281       11.2187066662       25.3000070240
  H        -9.8605670166       11.3846244558       26.9745630005
  C        -3.8435189783       15.3359402662       38.7000557805
  N        -3.6857173011       16.6985621528       38.6936416002
  O        -2.7082670497       18.2886568025       37.5138737978
  S        -4.5306607665       14.6517773812       40.1553269944
  C        -3.8816562345       17.5651233756       39.8664589377
  H        -4.1814375889       18.6013563210       39.6232507374
  H        -4.7471754110       17.1987653089       40.4644763010
  C        -2.6403260871       17.4939768904       40.7151845767
  H        -2.2160404558       16.4117343598       40.7418158631
  H        -1.7816364522       18.1644550802       40.3710060116
  H        -2.9037250649       17.6338199149       41.7988272446
