352
i=
  H         3.0147769506        1.3706855295       13.8065314356
  C         3.8620678720        1.8687375240       13.2733493037
  H         4.6510780932        1.0605518976       13.2539197917
  C         3.3364023372        2.2411373525       11.9305388423
  C         4.4031137736        2.9360813153       14.3885051425
  C         4.4826054670        2.6049363972       10.9830409950
  H         2.7125589424        3.1710755181       11.9876513259
  H         2.6159462304        1.4051315484       11.6205512887
  H         3.7108518258        3.1827336274       15.1484095490
  H         4.5256759758        3.8799291643       13.8733529217
  H         5.2373898176        2.5349621837       14.8964811163
  C         5.2513639073        1.3735704775       10.5222740470
  H         4.2261676326        3.3286613556       10.2725543624
  H         5.1898453068        3.1693019121       11.5719962907
  C         5.6768729109        1.5415521313        9.0789939594
  H         4.5178262283        0.5916995083       10.5948305937
  H         6.1112427324        1.0118334992       11.1156420635
  C         6.8914441420        2.4069544953        8.8861492185
  H         4.8443177866        2.0106384091        8.5360748238
  H         5.7792253217        0.5735154826        8.5648932408
  C         8.1300294265        1.8923638349        9.4727627881
  H         7.0751993330        2.5946536565        7.8872205984
  H         6.6921783122        3.3715757177        9.3274753664
  C         9.3570746663        2.7414889383        9.4296630250
  H         8.2904794877        0.9401141727        8.9217901431
  H         7.9254070032        1.7069532074       10.5795379310
  C         8.9536360451        4.0923324319       10.0653932666
  C         9.6526028463        3.3591675330        8.1224570770
  C        10.5026290383        2.1295991742       10.2893006247
  C         9.0715867725        5.1277899861        9.1564204649
  C         8.5319040612        4.5382656069       11.3705291114
  C         9.5356254492        4.6829222044        7.9200016176
  C        10.1286909920        2.7585286211        6.9657143939
  H        10.0173274449        1.8334032891       11.2269016083
  H        11.0095393009        1.2789500962        9.7354923675
  C        11.6527985332        3.0601356150       10.6982262659
  S         8.5847080321        6.6712253930        9.8573216463
  C         8.3015391572        5.8960680436       11.4136678550
  H         8.4545171562        3.7931129219       12.1207473587
  C         9.8745057165        5.2237974407        6.6941318174
  H        10.3862886508        1.6599159295        7.1905261526
  C        10.3671669672        3.2778989882        5.7484923384
  H        11.4133628490        3.9780522923       11.1035493553
  H        12.2342823167        3.3421514230        9.7921433952
  C        12.5418916031        2.4164252859       11.6886344681
  C         7.6838252333        6.6281320007       12.5467772334
  C        10.2703624690        4.5735865559        5.5441513533
  H         9.6318702291        6.2531115185        6.6285799318
  C        10.7686278938        2.8640187631        4.5014984011
  H        13.4400948947        2.9276118650       11.7109954633
  H        13.0095495459        1.4759714486       11.2909603224
  C        11.9557587849        2.0174936187       12.9824865995
  C         7.8650343723        7.9916165659       12.8758560016
  C         7.1341924858        5.7226997719       13.5799225912
  C        10.6663254136        5.3000906750        4.2642875147
  C        10.9281881970        3.9024753865        3.6006922047
  S        11.0689420135        1.3450956978        3.8410532926
  H        11.2739945495        2.7108110635       13.3077626968
  H        11.5426937791        1.0781585109       12.9133775080
  C        13.0563598816        1.8789784218       13.9675578697
  N         8.2916660683        9.0275305032       12.0504509035
  C         7.5981664278        8.4632927240       14.1717032157
  C         6.7192425115        6.2875165013       14.8023158625
  H         6.9103049044        4.7070738707       13.3643954578
  C        11.9245146364        6.2251455788        4.4226005807
  C         9.5403254083        6.0350328460        3.4812592468
  C        11.2462696254        3.4401320174        2.3246088890
  C        11.4792859021        2.0756314984        2.2898419114
  H        13.2625290077        2.9041678574       14.2466954317
  H        13.8571624877        1.3095402538       13.3869913541
  C        12.5897433004        0.9939931153       15.0821042236
  S         8.4284817202       10.4141450753       12.9780326509
  N         7.9776405990        9.7904639664       14.4118574958
  C         6.9397372479        7.6858258650       15.1580606385
  H         6.1549465664        5.6981327504       15.5084955589
  H        11.6817083051        7.1172530701        5.0683008408
  H        12.2646226537        6.6531512077        3.4391738260
  C        13.0482781822        5.3221371087        5.0501468816
  H         9.3916853755        7.0497132458        3.8651479379
  H         9.9098719026        6.1098030409        2.4451456850
  C         8.2242543939        5.2741832197        3.3949067775
  H        11.3778229151        4.1960881373        1.5472291676
  C        11.7583418442        1.3366605883        1.0629435690
  H        12.0196624991        0.1511468229       14.6756306134
  H        13.5303537816        0.7549945459       15.6596066252
  C        11.6216633749        1.6938808079       16.0923177840
  C         6.6042102084        8.3035759122       16.3925521148
  H        12.7379847132        4.8041494771        5.9143442856
  H        13.4041822205        4.5207965965        4.3346338575
  C        14.3059338317        6.0531667362        5.4670505789
  H         7.8524365390        5.4608291370        4.3992603484
  H         8.2859604109        4.2590491767        3.3220622660
  C         7.2159772654        5.8901932893        2.4163185346
  C        11.7948973062       -0.0870442439        0.8868318297
  C        11.8884280543        2.1219827067       -0.2290901566
  H        10.8144527397        0.9825661403       16.2225695912
  H        11.0651130414        2.5073650485       15.7170231246
  C        12.2799012611        2.0470402804       17.4413690989
  H         6.4659815309        9.3858772921       16.3645253924
  C         6.3345191482        7.8358617447       17.6039643358
  H        13.9547480903        6.8041819417        6.1975211896
  H        14.6067276376        6.6452294658        4.6008930115
  C        15.3994889643        5.1243084391        5.8581132428
  H         7.8066568626        6.5048713809        1.6914126177
  H         6.7690641172        5.0306800786        1.9499762095
  C         6.0925661871        6.5724036231        3.0271999821
  N        11.5100458017       -1.0186730009        1.8385986179
  C        12.0540630587       -0.6892313330       -0.3456164330
  C        12.2259729274        1.4874932295       -1.3939533984
  H        11.8166961943        3.2243120959       -0.2790517605
  H        11.4454139207        2.4067600190       18.2798724092
  H        12.9569185045        2.8557705510       17.2729160770
  H        12.7470416835        1.1287684254       17.7873985878
  S         5.9496626134        6.2038892405       18.0432548047
  C         6.3028030261        8.8330897661       18.6961367929
  H        14.8987500947        4.4089929688        6.5372398833
  H        15.7852763063        4.6527043817        4.9926310950
  C        16.3901984537        5.8365985648        6.6964769100
  H         6.5066665149        7.5208892861        3.5043559514
  H         5.5447867857        5.8990646018        3.7374801927
  C         5.1616499082        7.0257974337        1.8674460459
  S        11.5246022113       -2.5336926552        1.2162603962
  N        11.9685644588       -2.0772440130       -0.2980390067
  C        12.4238203649        0.0062473308       -1.4947929382
  H        12.3441282262        2.1532212244       -2.2757456041
  C         5.9930714168        6.7943080308       19.6913162170
  N         6.1562241728        8.1130372988       19.8602785052
  O         6.3820016138       10.0434896693       18.6095373304
  H        16.7174782607        6.6840171056        6.1011704850
  H        15.8797612090        6.3148839112        7.5074086660
  C        17.4702767869        4.9670411375        7.2704117359
  H         5.6461842908        7.7571170053        1.2404369604
  H         4.9035456347        6.1851081948        1.2540993460
  C         3.9279050295        7.7313070468        2.4806291165
  C        12.8264942621       -0.6706494862       -2.6645418271
  S         5.5568500242        5.7242686058       20.9979242894
  C         5.9792151587        8.7074824643       21.1502128847
  H        17.2520814247        4.7084120654        8.3210133283
  H        17.4270667991        4.0172826871        6.7103279986
  C        18.6997576215        5.8038501054        7.1689227179
  H         4.0138600302        7.5816138086        3.5827581494
  H         2.9512503845        7.2982793009        2.2132502158
  C         3.9055053191        9.2532895564        2.2855322022
  H        12.6492397586       -1.7242140827       -2.6648412520
  C        13.3360973243       -0.1814427051       -3.8538233447
  H         5.9255858318        7.8829515150       21.8561627883
  H         5.0509537604        9.3136929760       21.0910017129
  C         7.1484248756        9.5501647764       21.5950777849
  H        19.4654162447        5.5380014007        7.9866987473
  H        18.4530557337        6.8986761821        7.3053811692
  C        19.4157289611        5.6230473189        5.8670893722
  H         3.1288403439        9.6413931653        3.0295966030
  H         4.8667556584        9.6610819057        2.4777563614
  C         3.4998536398        9.6892897680        0.8270387918
  S        13.7332589383        1.3960242058       -4.2047462301
  C        13.6415961719       -1.1338538531       -4.9077588216
  H         7.0524526413        9.6521890908       22.6794761614
  H         6.9990626514       10.5726513188       21.1953904393
  H         8.1218202668        9.2233602534       21.3171262819
  H        20.2035427573        6.4155638736        5.7512379001
  H        19.9137740291        4.6132968404        5.8872650660
  H        18.8196141227        5.4739518105        5.0403345629
  H         3.4395327977       10.8289098455        0.8661412378
  H         4.1880403821        9.4217705430        0.0549296912
  H         2.5558629647        9.2445012247        0.4966523655
  C        14.2899499149        0.8655998091       -5.7873690812
  N        14.1450263140       -0.5186119311       -5.9496282560
  O        13.5630658845       -2.3573635411       -4.8607964316
  S        15.0038540378        1.8496993044       -7.0895492803
  C        14.4337494564       -1.2598304682       -7.1997462077
  H        14.6911895595       -2.3429209703       -7.0295559699
  H        15.3238871641       -0.8944538252       -7.5986398137
  C        13.1415588933       -1.1353920904       -8.0616775551
  H        12.4598122566       -1.7961012673       -7.5152826690
  H        13.1541662807       -1.6037841998       -9.0651529148
  H        12.8498024645       -0.0280700475       -8.0576518191
  H        -2.7652363981       15.2418517637       16.7237560216
  C        -2.7005565329       14.1953703478       16.6884075130
  H        -3.7491900277       13.9045251534       16.7291093015
  C        -1.8440379668       13.7139399918       17.8650041038
  C        -2.0539748851       13.7740546780       15.3734994674
  C        -2.4226710767       14.1795429661       19.1794774790
  H        -1.8918219785       12.6743554862       17.7656905452
  H        -0.8412122126       14.1228109276       17.8278362176
  H        -2.5552767104       14.1991591967       14.5247327181
  H        -1.0183112374       13.9477503557       15.3018442461
  H        -2.2194140191       12.6796279891       15.2025736662
  C        -2.5391403158       13.0397594375       20.2353045165
  H        -3.4355432184       14.6585495356       19.0312537372
  H        -1.7842788463       14.9547503693       19.5356965910
  C        -2.7071219586       13.5321150665       21.7262287481
  H        -3.4326769941       12.4643300052       19.9796015610
  H        -1.7978063704       12.2620723228       20.1221997950
  C        -1.6962506172       13.0391984875       22.7648874853
  H        -3.6564872080       13.3844263619       22.1441623162
  H        -2.5883908501       14.5961527622       21.6933611850
  C        -0.4244737254       13.9568761873       22.9439713676
  H        -2.2485658938       12.9746445983       23.7133492117
  H        -1.4701790659       12.0662100564       22.3992151147
  C         0.7535047852       13.2056706261       23.5404438984
  H        -0.1524084677       14.3025039941       21.9455232777
  H        -0.5419774949       14.8536107654       23.5559880182
  C         1.1326781206       11.9069852931       22.7855074180
  C         0.3687930518       12.4673875909       24.8042112380
  C         2.1569174612       13.9795142890       23.6853852938
  C         0.9518352833       10.7811692522       23.5647767122
  C         1.6737629710       11.5270461716       21.5123255115
  C         0.4431545075       11.1455348603       24.8119604124
  C        -0.1318862188       13.0372394647       26.0002597644
  H         2.4499240364       14.6153205872       22.8501115345
  H         1.9175580632       14.7471902712       24.3802730090
  C         3.3430687768       13.2050105423       24.2307950124
  S         1.4378880207        9.2986339764       22.8165918268
  C         1.8707515142       10.1525012446       21.3807630251
  H         1.7810115656       12.2829609748       20.7159835301
  C         0.2203586481       10.4866965733       26.0209436025
  H        -0.3965622738       14.0978453214       26.0058713787
  C        -0.4224326081       12.3348003609       27.1580847320
  H         3.4763131297       12.2539337431       23.7112534114
  H         2.9813640583       12.9411395034       25.1726780281
  C         4.6965436640       13.9351797792       24.2685976024
  C         2.2463095439        9.4878306574       20.1153942123
  C        -0.2079814611       10.9951276429       27.2291530825
  H         0.3169771682        9.3372090427       26.0363369890
  C        -0.7916971281       12.6743237844       28.4303543531
  H         5.4476702150       13.3189349791       24.8222604174
  H         4.5790258393       14.9466542530       24.7861077813
  C         5.1619720628       14.4035456740       22.9381270733
  C         2.2965130100        8.1048850638       19.8347416302
  C         2.7417432140       10.3594442598       18.9943395241
  C        -0.6098087388       10.2629467120       28.4329483173
  C        -0.8401496040       11.5677709058       29.2100699813
  S        -1.2700320979       14.0867019706       29.2107448331
  H         5.9500570623       15.1996834783       23.1306652741
  H         4.3958534379       14.8421212147       22.2793365344
  C         5.9459733296       13.2669908972       22.2482922870
  N         1.9570216139        7.1782134108       20.7439212453
  C         2.6674079516        7.5609907574       18.6432606096
  C         3.1780179953        9.7837884564       17.8060906267
  H         3.0004455046       11.4037546034       19.2476757368
  C         0.5061775968        9.3341070062       29.1035789457
  C        -1.9629400617        9.4924979858       28.1984104851
  C        -1.1356949086       11.9272878073       30.5704853052
  C        -1.3193640981       13.2643216245       30.6652578086
  H         7.0497005661       13.2579664275       22.5502844999
  H         5.5783491639       12.2916894065       22.6076166631
  C         5.7419069449       13.2134063657       20.7205231255
  S         2.0299316654        5.7181337231       20.1145424349
  N         2.6292026638        6.1696947460       18.6823714389
  C         3.0494908856        8.3678157866       17.4875716849
  H         3.4633397960       10.3838165043       16.9969562774
  H         0.5864333652        8.4704607651       28.4329546451
  H         0.0648860289        8.8591321481       30.0084626685
  C         1.7815697629        9.9745843243       29.4100153846
  H        -1.7026296553        8.7808734469       27.3952015149
  H        -2.2575469165        8.8532617437       29.0174523073
  C        -3.1123950183       10.3129552069       27.7115890491
  H        -1.1462080527       11.1436121350       31.2967914014
  C        -1.7062626734       13.9854777684       31.9394146192
  H         4.9712123921       13.8886242443       20.3263196488
  H         5.3631820576       12.2317967261       20.4473139259
  C         7.0464514727       13.3389792666       19.9190008408
  C         3.2587597293        7.6727885393       16.3033861574
  H         2.1227133682       10.6230725362       28.5607604709
  H         1.5839393481       10.6301250475       30.2475322911
  C         2.8952643571        9.0068931162       29.5557567569
  H        -2.8728564709       10.8502765217       26.7850440923
  H        -3.3035408604       11.1099399169       28.4254447695
  C        -4.4302961487        9.5145275808       27.3774978174
  C        -1.8833503279       15.3703519746       32.0338484100
  C        -1.8718499711       13.2448846178       33.2072428945
  H         7.5588122829       14.1546484791       20.3217819218
  H         7.6291892062       12.4403465310       20.2543615147
  C         6.8979572789       13.4223510380       18.3948413164
  H         2.9588212071        6.6681805614       16.3825554020
  C         3.6470429619        8.0939031053       15.0440882152
  H         3.2243602885        8.5355554200       28.6110538776
  H         2.5551725532        8.1712767510       30.1122015035
  C         4.0771647292        9.6457311442       30.3374942044
  H        -4.3190855904        8.8534977544       26.4962893172
  H        -4.5869532466        8.9660505268       28.2793230665
  C        -5.6397869299       10.4717800559       27.0250977754
  N        -1.8653961473       16.2605928068       30.9966483477
  C        -2.1595358263       16.0508333093       33.2285832452
  C        -2.1476550778       13.8318887314       34.4327837831
  H        -1.8407578785       12.1787688561       33.1569622252
  H         7.4994785965       14.2694299561       18.2016202383
  H         7.3489573427       12.6042192662       17.8636982331
  H         5.9257679691       13.6191402973       17.9313898816
  S         4.2023797984        9.6739015479       14.6543794416
  C         3.6971066678        7.0896010478       13.9622067171
  H         4.4684651984       10.5580039053       29.8342853863
  H         3.7470692404       10.0944892341       31.2936145404
  C         5.0963554167        8.6020362080       30.4170525305
  H        -5.3961781147       11.2985170818       26.3141834483
  H        -6.0799219896       10.8980600625       27.9312206539
  C        -6.7357516875        9.7144485998       26.1681243171
  S        -1.9065748872       17.7809306606       31.4930496878
  N        -2.3668267119       17.4114054348       32.9741134559
  C        -2.2918252906       15.3543339502       34.4780217131
  H        -2.3242461260       13.2661224064       35.2927867487
  C         4.5096941779        9.0924544460       13.0708679731
  N         4.1256396746        7.7657946588       12.8376357061
  O         3.3179967755        5.9128640363       14.0841391213
  H         6.1104608248        9.0809298767       30.2347855567
  H         4.9609007569        7.8458237576       29.6542265078
  C         5.1145402542        7.9121202075       31.7835614416
  H        -6.2288991770        9.0997218138       25.4488820986
  H        -7.2550101079        8.9899457355       26.8316572045
  C        -7.7986944946       10.6917949475       25.6288270780
  C        -2.7432547622       16.1281409886       35.5551866676
  S         5.1125849107       10.1042689401       11.7702866074
  C         4.1286637635        7.1620573816       11.5176113406
  H         5.3797406607        8.6812348498       32.5328892110
  H         4.0852737791        7.7152679056       32.0092554695
  C         5.9240012968        6.6259971558       31.9475005074
  H        -7.3196389697       11.3376165326       24.9294958412
  H        -8.2328228142       11.3547963689       26.3183023965
  C        -8.9189259274        9.9598747066       24.9607074844
  H        -2.5806090073       17.2088950535       35.4682928636
  C        -3.2105947485       15.8976357400       36.8248221586
  H         4.4911914002        7.8360680488       10.7633746115
  H         4.8845867118        6.4101831107       11.4972382192
  C         2.8096466202        6.4377824561       11.0702306753
  H         5.1692414026        5.8191709211       32.1124474496
  H         6.3653070717        6.5949411464       32.9746177913
  C         7.0072734068        6.1798211053       30.9555013542
  H        -9.2222465071       10.2708799227       23.9929286970
  H        -8.4217404494        8.9880804657       24.7032270466
  C       -10.1296463623        9.7741637308       25.8264889445
  S        -3.5026377718       14.2971272916       37.5794839441
  C        -3.3328794976       17.0858995286       37.7786277179
  H         2.6274414601        6.8489136702       10.1036421363
  H         3.0536924058        5.3938387686       10.9576650771
  H         1.9414455497        6.6244681434       11.7093047441
  H         7.9502636174        6.7188329866       31.1147702059
  H         6.5616497388        6.2270303774       29.9294368853
  H         7.2064513890        5.1667091748       31.1069569942
  H       -10.6947753424       10.6682161103       25.9702656660
  H        -9.8526642410        9.2626600670       26.7624394184
  H       -10.7635058756        9.1356850988       25.3010741595
  C        -3.8582564968       15.2715128187       39.0276428274
  N        -3.7622808879       16.6051224989       38.9712511701
  O        -3.1087898022       18.2523277690       37.4782347694
  S        -4.4980415601       14.5006489761       40.5260079214
  C        -3.8230383321       17.5611444581       40.0863655973
  H        -4.2208890156       18.5102908826       39.6764057149
  H        -4.5714203750       17.2169896177       40.7738729553
  C        -2.4506901267       17.8258145005       40.6519379655
  H        -2.1323899454       18.8671546735       40.4921250884
  H        -2.4339605621       17.5781379854       41.7443750348
  H        -1.7555887896       17.2519445052       40.1058460370
