352
i=
  H         2.6598295636        4.0185900992       12.3705937324
  C         3.0465411797        3.0278749821       12.2598334693
  H         2.4005347759        2.4771686761       12.8514960729
  C         2.8263634677        2.5989100494       10.8308011398
  C         4.4189020032        2.7769227480       12.8425626331
  C         3.9092733022        2.9294100631        9.7625295533
  H         1.9096825364        3.0727647294       10.5364580094
  H         2.4707614726        1.5397198300       10.6737347505
  H         4.3370243445        2.4690174231       13.8569520470
  H         5.0894956748        3.6549090911       12.8326823112
  H         4.9516891512        1.8817710366       12.3583089224
  C         4.7691554995        1.6484932854        9.3934994995
  H         3.3746604660        3.2376042122        8.8740960975
  H         4.5153429416        3.7267448326       10.1043166496
  C         5.7086833410        1.8451134975        8.1982732790
  H         3.9918379381        0.8804780746        9.1811050356
  H         5.3438234475        1.2870932681       10.2963210217
  C         6.9665233922        2.7622526240        8.3817845496
  H         5.1142521694        2.2421265631        7.3417677019
  H         5.9759789028        0.9055788865        7.7285340712
  C         8.1419405698        2.0236058950        9.0381899021
  H         7.2203788131        3.1275851300        7.4328469419
  H         6.5742622087        3.5927007177        9.0238664569
  C         9.3641928163        3.0036932450        9.2532983136
  H         8.5309630556        1.1797861542        8.4496287631
  H         7.9195325333        1.5042622111        9.9456361808
  C         8.9506666803        4.3086335816        9.9138212760
  C         9.8420619572        3.6759794477        8.0164563405
  C        10.5418106413        2.3293882942        9.9510733593
  C         9.1877537329        5.3819306362        9.1034709184
  C         8.3841390894        4.6788969631       11.1201979439
  C         9.7486337125        4.9880664233        7.9225287915
  C        10.3131053066        2.9947708629        6.8884507034
  H        10.0804070467        1.6472906211       10.7112043534
  H        10.9426172040        1.5037254923        9.4352958747
  C        11.6402059538        3.2429325007       10.4741998142
  S         8.5593503951        6.8667815814        9.7326235971
  C         8.1847964866        6.0368998040       11.2664762032
  H         8.3534084271        3.9248186091       11.7994052985
  C        10.1730311381        5.6071466857        6.7751344885
  H        10.4183657832        1.8741397898        6.9820993342
  C        10.5807161431        3.5570061402        5.7039857440
  H        11.2149947762        4.0611418342       10.9914782898
  H        12.1596132130        3.6752247214        9.6162282896
  C        12.6671844916        2.4210350735       11.2734105435
  C         7.6823347352        6.6506575873       12.5537610504
  C        10.6262912482        4.9026424892        5.6020825497
  H        10.0812446768        6.6737911618        6.7667580856
  C        11.0807598161        3.1427699878        4.4938418928
  H        13.5515782585        3.0236710018       11.3005102492
  H        12.9137382902        1.4549718980       10.7480191364
  C        12.1923175729        2.2622927152       12.7419921052
  C         7.8724683989        8.0067895033       12.9188028428
  C         7.1905285098        5.8027573949       13.6713442021
  C        11.1086375346        5.5333792978        4.2672011307
  C        11.3457782022        4.1483063637        3.6252149314
  S        11.3428288767        1.5791594158        3.8340107439
  H        11.4762287682        3.0867868335       13.0679039756
  H        11.4864840354        1.4743957867       12.7113625774
  C        13.2440752349        2.0045351450       13.8392977442
  N         8.2308381538        9.0373656412       12.1083431928
  C         7.5801909327        8.4705257088       14.2018889789
  C         6.8841835119        6.2282880407       14.9367242385
  H         7.1436916602        4.6786789994       13.5462467652
  C        12.5084307898        6.2403806225        4.3509964305
  C        10.0539164866        6.2981937399        3.3624343147
  C        11.6283270379        3.6612959177        2.3203455562
  C        11.6851208525        2.2568061636        2.2709095344
  H        13.6229829192        2.9658634791       14.2734387257
  H        14.0561543189        1.4371748772       13.4037240793
  C        12.6186737941        1.1848616038       15.0303468640
  S         8.2884124514       10.4326453718       12.8619160268
  N         7.8127727844        9.8846774057       14.2908232897
  C         6.9491893041        7.6825375270       15.2338389210
  H         6.3112126796        5.5211233245       15.5458919947
  H        12.5544475003        7.1279115005        4.9396309822
  H        12.8335553498        6.4778283137        3.3434360916
  C        13.5087478854        5.3515622681        5.0279348797
  H         9.7853543089        7.2210766349        3.8680182018
  H        10.5643496801        6.5342858429        2.4223009253
  C         8.7203336977        5.5730880469        3.0915420266
  H        11.8089996570        4.3289854249        1.4825370637
  C        12.0178413645        1.5096223565        1.0737604927
  H        11.8213328089        1.8652295454       15.3945007952
  H        12.3045667637        0.1497565594       14.8270635827
  C        13.5641854904        1.2509908478       16.1957949110
  C         6.7991036002        8.3179294376       16.5255762063
  H        13.1756084550        5.0861589224        6.0783892638
  H        13.7212096788        4.4770366736        4.4602992783
  C        14.9070191305        6.0141334585        5.1134685400
  H         8.3467220640        5.1875676501        4.0567442709
  H         8.7932888319        4.6596350708        2.4679691148
  C         7.6905174476        6.5043389394        2.5095571101
  C        12.0325612684        0.1612210292        1.0355467002
  C        12.2201860887        2.1411057589       -0.2535586317
  H        14.5681851976        1.4826346983       15.8005523238
  H        13.7343519984        0.2170227464       16.5459425180
  C        13.2549805696        2.3114422640       17.2797746522
  H         6.8267982045        9.4098959438       16.4367835586
  C         6.4774301749        7.8258041600       17.8061907013
  H        14.8680199996        6.8806194146        5.7208910092
  H        15.2593864230        6.3295465086        4.1547665810
  C        15.9247659536        5.0847242400        5.8460592901
  H         7.4873897815        7.0625809944        3.4602593761
  H         8.1638475590        7.1766219587        1.7481237729
  C         6.3867424168        5.8813470335        2.0581625865
  N        11.7730356133       -0.6936065005        2.1743287946
  C        12.1967573548       -0.6066049343       -0.1258922149
  C        12.4833258775        1.4018154600       -1.3901774016
  H        12.1358584292        3.2585018317       -0.2889983336
  H        13.2475922806        3.2472974149       16.7744448266
  H        14.0046236709        2.3328149587       17.9536579620
  H        12.3598999376        2.1445352131       17.8955621791
  S         6.2800731051        6.2471531772       18.3706430077
  C         6.2791099734        8.8815321647       18.8448415185
  H        15.4210640299        4.4791423149        6.5938496955
  H        16.2697822026        4.2622748822        5.2605704932
  C        17.0148618148        5.9751279759        6.3917243888
  H         5.9276918548        5.5136593460        2.9928529431
  H         6.4762748998        5.0142725220        1.3880886824
  C         5.3808883816        6.8424876768        1.3438738632
  S        11.8079271256       -2.2466140300        1.7271619585
  N        12.0260069589       -1.9534349034        0.1571035089
  C        12.5285128318       -0.0832398013       -1.3796779698
  H        12.5239735088        1.9385525890       -2.2913505222
  C         6.0012691016        6.9287605870       19.9342711852
  N         6.0634123431        8.2604850554       20.0052042030
  O         6.4158311502       10.0837217302       18.6686601633
  H        17.3378194928        6.6407337750        5.5498049364
  H        16.4335284397        6.6224208858        7.1153974494
  C        18.0969492227        5.2438932476        7.1914490612
  H         5.9382205430        7.3074909015        0.4926876982
  H         4.5164208506        6.2711874547        1.0046049745
  C         4.9677672073        8.0155708163        2.2250899446
  C        12.7828722263       -0.8413432352       -2.5434065016
  S         5.4051037657        6.0540263097       21.3170185250
  C         5.8799698968        9.0779818054       21.2773935866
  H        17.7480548495        4.9355342959        8.1159379479
  H        18.2206173862        4.2668771656        6.6049917577
  C        19.3865531224        5.9688007108        7.4366092884
  H         5.8827812754        8.4880369939        2.5261634438
  H         4.5493736396        7.6261315879        3.1561762038
  C         4.1754164250        9.1946010630        1.5060856457
  H        12.4357388652       -1.8262693421       -2.4199667124
  C        13.2468123709       -0.5218215302       -3.7806432893
  H         5.3557195921        8.5864250661       22.1052486835
  H         5.3679527107        9.9907602742       20.9840211154
  C         7.2142511660        9.4103047701       22.0495544848
  H        19.7755958007        5.6523469284        8.4446846773
  H        19.2821698529        7.0280016747        7.3346094596
  C        20.2715429892        5.5211568117        6.2744567949
  H         4.7108766882        9.5505259571        0.5897341659
  H         3.2316867404        8.8670251533        1.1512585284
  C         4.0434946340       10.4541032761        2.3688094861
  S        13.9143506498        1.0069995053       -4.2434012313
  C        13.3307429421       -1.6217693805       -4.7998247138
  H         7.0284175412       10.1328017229       22.8391843228
  H         7.8683423450        9.9625902441       21.3730904963
  H         7.8677960883        8.6031396931       22.3590217949
  H        19.8028435273        5.7410967032        5.2683022616
  H        21.2124370559        5.9658483851        6.1565493663
  H        20.5136144208        4.5068174130        6.3354885283
  H         4.3052452654       10.0802495355        3.3038985169
  H         4.7868680766       11.0988432439        1.9484064381
  H         3.0536120275       10.9535724754        2.2990934589
  C        14.2482055827        0.2235752404       -5.7513760727
  N        14.0461783554       -1.1358844131       -5.8240889350
  O        12.9642451506       -2.7801974964       -4.6695961778
  S        14.9246758247        1.1324068003       -7.1722455884
  C        14.3646716315       -1.7989330529       -7.0973804353
  H        14.5069118117       -2.8382692451       -6.7728658830
  H        15.3415181675       -1.4374384294       -7.4797227153
  C        13.2616740336       -1.6742290611       -8.1648609991
  H        12.3185176151       -1.8194281683       -7.6512994528
  H        13.2862201953       -2.4120787691       -8.9303578835
  H        13.2613395462       -0.6612760819       -8.5321270794
  H        -1.1318649096       14.9781514458       17.5240674527
  C        -2.1373407676       14.8070345303       17.1695302675
  H        -2.6178001021       15.7862245513       17.1920133755
  C        -2.9276717843       13.9562166213       18.1813689766
  C        -2.1400725363       14.1766664525       15.6912508127
  C        -2.2592808506       12.6752770206       18.7670709146
  H        -3.2469609861       14.5236813078       19.0278328613
  H        -3.9237480076       13.7958382825       17.6753434678
  H        -1.9678429733       13.1148555080       15.7358968073
  H        -3.0698589743       14.3041144119       15.1487309877
  H        -1.3605652944       14.5455465722       15.0948946179
  C        -1.2542325767       13.1954003946       19.8046552168
  H        -1.6580127631       12.2845053843       17.9703037855
  H        -2.8754882936       11.9380645123       19.2208310520
  C        -1.9346261005       13.2713175570       21.1865262047
  H        -0.3974224705       12.4956673520       19.8016345977
  H        -0.8099586742       14.1290669320       19.3961705471
  C        -1.1027376268       12.8298618890       22.3708080641
  H        -2.8001694257       12.5837270947       21.2189819340
  H        -2.4194509315       14.2114486317       21.2602495972
  C         0.1443215528       13.6944590527       22.7096518095
  H        -1.8164704567       12.8316714614       23.2379828446
  H        -0.8834506933       11.7531168915       22.2227313075
  C         1.2759477877       13.0469008408       23.5218813369
  H         0.6317337260       14.0923669142       21.8149055144
  H        -0.3151312959       14.5846351138       23.2199498805
  C         1.6721361247       11.6567257430       22.8681611793
  C         0.8091832773       12.3705198247       24.7543857900
  C         2.4691950065       14.0480066226       23.6382471415
  C         1.3800354399       10.5947161401       23.6948372197
  C         2.2480268914       11.2580410578       21.6658849466
  C         0.8803092179       11.0411561321       24.9255228460
  C         0.2486141880       13.0305698211       25.8324816814
  H         2.5915507005       14.5012201718       22.6436086280
  H         2.1444115878       14.9286324369       24.2637233163
  C         3.7791166062       13.4415423418       24.1535849208
  S         1.6643186683        9.0394026664       22.9447051626
  C         2.1660755325        9.8780663834       21.5237739071
  H         2.4720806747       11.9445137130       20.9192049563
  C         0.5056326945       10.4233778487       26.0929181278
  H         0.1698993518       14.0793740678       25.5943976918
  C        -0.0093471850       12.4578962310       27.0472222619
  H         4.0805199462       12.6832494066       23.5409423042
  H         3.5615819979       13.0690465264       25.1425941068
  C         4.8596776552       14.3975469432       24.4708751270
  C         2.4820479886        9.2255338781       20.2114575099
  C         0.0365959567       11.0977471663       27.2235084441
  H         0.5409484341        9.3546487455       26.1548800839
  C        -0.4265788913       12.9132937828       28.2663581334
  H         5.5511601728       13.9285493319       25.1972426770
  H         4.4422428555       15.1911530951       25.0129795458
  C         5.6567203162       15.0492965826       23.3311379888
  C         2.4149133753        7.8379785371       19.8521651282
  C         2.7399041632       10.1364016875       18.9636597451
  C        -0.3452477552       10.4899508938       28.4555221489
  C        -0.6426837530       11.8434132269       29.0817673347
  S        -0.7721911885       14.4201712363       28.9698712961
  H         6.4817371162       15.6020663533       23.7849186913
  H         5.1419464176       15.7510336799       22.6923984286
  C         6.3263046158       14.0297258952       22.3616546086
  N         1.9849544335        6.8379102508       20.7483372366
  C         2.7659200878        7.4174348496       18.6211014075
  C         3.0141445698        9.6470378747       17.6563217552
  H         2.6162593695       11.2309471512       19.0440650810
  C         0.7199082753        9.7072905291       29.1205301639
  C        -1.6611344667        9.6899512986       28.3180862064
  C        -1.1415686343       12.2011068264       30.3284067212
  C        -1.2063693944       13.5886015747       30.4579274289
  H         7.3143404837       14.4082651745       22.1396677052
  H         6.6150428380       13.0724095812       22.7267388209
  C         5.4588121959       13.8797347298       21.1379951223
  S         2.0772366040        5.4442326212       19.8767077576
  N         2.6384279858        6.0477262230       18.4816294422
  C         3.0283229629        8.1521158673       17.4900785618
  H         3.2336700306       10.4067354902       16.9321984581
  H         0.8873220309        8.8049128886       28.4823508502
  H         0.2155384425        9.1413119593       29.9535609175
  C         1.9817682062       10.4347384932       29.6856574566
  H        -1.4415763795        8.8861110926       27.6025689822
  H        -1.9290029320        9.1434455767       29.2323235778
  C        -2.9204934942       10.5041944140       27.9381970463
  H        -1.5524483708       11.4442001388       31.0104322054
  C        -1.5611333221       14.3147124480       31.7590561660
  H         5.3678714954       14.9641118006       20.8828454511
  H         4.5123089779       13.4852647333       21.4218387685
  C         5.9002408252       12.8861448609       20.0440699611
  C         3.3051048455        7.5676922706       16.2054391690
  H         2.2711786257       11.2428185237       29.0542719909
  H         1.6390931305       10.9301437426       30.6078613815
  C         3.0714706095        9.4927992611       29.9894300568
  H        -2.6576513577       11.4256356424       27.4861851408
  H        -3.3048737223       10.8561146722       28.9544124793
  C        -4.1216216916        9.7954741625       27.2053352161
  C        -1.5665062696       15.7056654100       31.9671961376
  C        -1.8681554972       13.4417288735       32.9633132301
  H         6.2826255539       11.9892086863       20.5768332035
  H         4.9533928444       12.5346990484       19.6519596940
  C         6.9194294639       13.5752403367       19.0170667528
  H         3.2542771283        6.4788568577       16.2400735924
  C         3.6037739825        7.9847140927       14.9405652556
  H         3.4404868417        8.8267232799       29.1658049069
  H         2.5726794247        8.8353407149       30.7587352271
  C         4.2058140141       10.1122842027       30.7330569649
  H        -3.7311055708        8.9472209116       26.6127050719
  H        -4.7204234975        9.3907356513       28.0711448957
  C        -4.9053987761       10.7926446963       26.2846063052
  N        -1.2955826436       16.6735954216       31.0012766161
  C        -1.8457080003       16.2469748552       33.2403776250
  C        -2.1985549346       14.0510352782       34.1294020682
  H        -1.8910127912       12.3844517467       32.9501536021
  H         6.5945783170       14.6438424337       18.8074442994
  H         7.8068253094       13.7249787458       19.5844179038
  H         7.1379243653       13.0347216353       18.1188792506
  S         3.9690955190        9.5539943349       14.5142103223
  C         3.6367054187        7.0153703607       13.8273038107
  H         4.2266240836       11.1521354853       30.3337398591
  H         3.8684173863       10.3917962279       31.7629840037
  C         5.4704376206        9.2789031687       30.8241358648
  H        -4.1984363513       11.4334565661       25.8010289067
  H        -5.4655180769       11.4218490489       26.9996507074
  C        -5.9082376917       10.1053453019       25.3644215355
  S        -1.3374797049       18.0783023651       31.7524633106
  N        -1.6598845541       17.5881534168       33.3395567023
  C        -2.2704509746       15.5126558056       34.3222356033
  H        -2.5634969468       13.4669414783       34.9078324463
  C         4.1406023993        9.0028524626       12.8850347146
  N         4.0462604324        7.6775987773       12.7303016247
  O         3.3701758037        5.8237693869       13.9153939989
  H         6.3278984553        9.9133918920       31.2081628909
  H         5.6952693376        9.0414203551       29.8412815182
  C         5.2467747025        7.9245464331       31.5078726515
  H        -5.3971071465        9.4396808182       24.6249804581
  H        -6.4984589565        9.5186574878       25.9576737772
  C        -6.9286652862       11.1111720636       24.7141063965
  C        -2.5209036344       16.1787493046       35.5417987533
  S         4.6911798720        9.8910664674       11.5340482148
  C         4.1489912837        6.9582917734       11.4504219037
  H         4.7396873597        8.1696200950       32.3423867484
  H         4.6040350966        7.3044882097       30.9134780148
  C         6.5165475107        7.1000742482       31.8803812697
  H        -6.6835801668       11.3151893673       23.7480959109
  H        -6.8420759522       12.0893189611       25.1847390009
  C        -8.3859173884       10.5895817925       24.6271070620
  H        -2.2976945942       17.2848454158       35.6479206739
  C        -2.9313157545       15.7355321823       36.7328583489
  H         4.7471815110        7.5199513061       10.7087725057
  H         4.5390062452        5.9404037582       11.4969862443
  C         2.8068941178        6.8574154722       10.7476228156
  H         6.2536662557        6.3529515242       32.6399646902
  H         7.3026235039        7.7164571101       32.3509346103
  C         7.1015578701        6.4476001322       30.6348992594
  H        -9.0934144254       11.1282450233       23.9892782580
  H        -8.2479853338        9.6585131786       24.0987986132
  C        -8.9339735346       10.4006426501       26.0380078515
  S        -3.4417141415       14.1112164513       37.0778656651
  C        -3.1329732972       16.7301658722       37.8181899888
  H         2.9389457890        7.5848865833        9.8913150651
  H         2.5237332960        5.9122113052       10.3200523980
  H         1.8857166291        7.1291846227       11.3662198503
  H         6.6482063356        6.8138520760       29.6920649318
  H         6.7963024815        5.3925992265       30.5198728763
  H         8.1950489295        6.4921016131       30.6054720798
  H        -8.6250270748       11.2486338356       26.7329020004
  H        -8.7172581309        9.4698508611       26.5224409782
  H        -9.9758036703       10.5388643015       26.0108530416
  C        -3.7847007206       14.7284000161       38.6841440245
  N        -3.7409097404       16.0819083311       38.8635573338
  O        -2.7682529140       17.9217077106       37.7778336574
  S        -4.8510526355       13.8677791726       39.8017717949
  C        -3.8970962477       16.7875373493       40.2174057465
  H        -4.2006170708       17.8274423047       40.0664325563
  H        -4.5983649397       16.3762277534       40.9779018946
  C        -2.5134259585       16.6872650889       40.8410058410
  H        -2.3894493433       16.7551012672       41.9369365282
  H        -2.1686570279       15.6125581825       40.5659237551
  H        -1.8079234129       17.3837684910       40.3458748457
