352
i=
  H         5.0029688326        2.1995886085       12.4091618313
  C         4.1876983108        2.8345313243       12.6445748167
  H         4.5679460343        3.8413159394       12.7568179948
  C         3.1894613482        2.7287234592       11.4476162679
  C         3.5317432071        2.4305755981       14.0176723879
  C         3.9893769948        2.9596729564       10.0975198622
  H         2.3162878344        3.4625920351       11.5765804391
  H         2.6880798079        1.7979181397       11.3473242002
  H         3.6687818041        1.3883172696       14.2267525792
  H         2.4385661577        2.5946111154       14.0701942890
  H         4.0098792789        2.9071072608       14.9202794159
  C         4.6479931046        1.7514351371        9.5003761504
  H         3.3511582286        3.2372885590        9.2750346211
  H         4.7575849063        3.7340706536       10.2071749777
  C         5.3658060822        2.1047658574        8.1839303582
  H         3.8561578158        1.0804468653        9.2542322589
  H         5.3055826073        1.2647237161       10.2442938478
  C         6.6260523653        2.9121938201        8.3851400173
  H         4.6342341021        2.4147264252        7.4590757891
  H         5.6488510159        1.1343104826        7.8481957772
  C         7.8145457309        2.1880265936        8.9957383493
  H         6.9376176208        3.1131908104        7.3842281252
  H         6.3645926348        3.8920951108        8.8780023208
  C         9.0267426027        3.0086683575        9.1208307940
  H         7.9987699001        1.2543288422        8.4421562016
  H         7.5220620546        1.9185349579       10.0332078576
  C         8.6705321095        4.3320680140        9.8727648021
  C         9.3813551837        3.7815510767        7.9143583510
  C        10.1074500737        2.3072589769        9.8587733992
  C         8.8567822670        5.4794810205        9.0698648494
  C         8.0146352486        4.6759520086       11.0726337821
  C         9.4136488193        5.1288115709        7.8677296721
  C         9.7964592609        3.2018844076        6.7477894107
  H         9.6899351722        2.1028570188       10.8527626800
  H        10.3531083524        1.3365411666        9.2993091723
  C        11.3157757587        3.1715587564       10.1761673602
  S         8.4611824843        6.9844207369        9.8192099061
  C         7.9187365197        6.0432170117       11.2178451630
  H         7.7117992443        3.9136077264       11.8156723297
  C         9.8435434999        5.8304680643        6.7311713368
  H         9.8033589738        2.1258620023        6.6015204985
  C        10.2973965770        3.8447400165        5.6416920344
  H        11.2175211150        3.7939281019       11.0735119852
  H        11.5573315486        3.9284106029        9.4278210532
  C        12.5928882580        2.4599191067       10.6063376533
  C         7.5262442375        6.7131583521       12.5214380020
  C        10.3718992677        5.1824155517        5.5649231136
  H         9.9435613791        6.9412345898        6.7477931190
  C        10.7437753373        3.4282925823        4.4292677821
  H        13.4867258872        3.0767246424       10.4362778662
  H        12.7616246429        1.5680712426        9.9612991773
  C        12.3751858650        1.9656860763       12.0117771887
  C         7.5350667734        8.0979896143       12.8008447422
  C         7.2550668419        5.8600912213       13.7074636607
  C        10.7764887760        5.8970109691        4.2852501249
  C        10.9841687063        4.5184273661        3.5968399189
  S        11.0779605423        1.9190391644        3.6365239274
  H        11.3771446170        1.8751382870       12.2982897998
  H        12.7604068719        0.9590190963       12.2582758611
  C        12.8639412068        2.9957374455       12.9630127168
  N         7.7086108161        9.0468317363       11.8948674164
  C         7.2879883710        8.6215283097       14.0501736348
  C         7.0475892206        6.3782251364       14.9904643930
  H         7.3593136077        4.8202867905       13.7015547441
  C        12.1079271761        6.6607338944        4.4296206328
  C         9.6764321932        6.6525705657        3.5078237275
  C        11.3002423540        4.1388118066        2.2329435056
  C        11.4351866144        2.7871192464        2.1155846926
  H        12.5000888794        4.0281228602       12.7028322733
  H        13.9386232318        3.0499930791       12.9834093503
  C        12.3243624311        2.6406187739       14.3863298608
  S         7.8904461416       10.4773936946       12.5862359362
  N         7.4745787404       10.0141364512       14.0816087523
  C         6.9843702245        7.8296038183       15.1779307708
  H         6.9958954197        5.7854718008       15.8518658438
  H        11.8328308511        7.7609548761        4.5669622759
  H        12.6942418116        6.4894622327        3.5622248420
  C        13.0172019394        6.2853238737        5.6277932983
  H         9.6287766982        7.7194883887        3.7611575208
  H         9.9188928488        6.6119184376        2.4124615608
  C         8.2419837663        6.1038149379        3.5134057744
  H        11.4490341747        4.8371384048        1.3621367004
  C        11.8014272513        2.0310052358        0.8404547676
  H        12.3201141194        3.5676055671       14.9094541779
  H        11.2905659480        2.3575489891       14.2710959985
  C        13.2033955737        1.7208070563       15.2464475978
  C         6.7254787854        8.4847667162       16.4713885082
  H        12.9675127726        7.0137128569        6.4145369466
  H        12.7903482367        5.2956838501        5.9703992080
  C        14.5270955256        6.1869194344        5.3091789826
  H         7.7660967302        6.4727988537        4.4080127469
  H         8.3386426073        5.0170434451        3.4856558556
  C         7.6091693862        6.6059976366        2.3043936737
  C        11.8206457204        0.6237662777        0.7788951250
  C        11.9641594460        2.7800829008       -0.4171220645
  H        14.2105967120        1.9739734612       15.2235915626
  H        13.0182045581        0.7113577492       14.9019803331
  C        12.6480381237        1.8652119445       16.6485590007
  H         6.5921597818        9.5317231334       16.4776027046
  C         6.4584229563        8.0057360345       17.7296331386
  H        14.8813424565        7.2003180962        5.0370603094
  H        14.7086782684        5.4914601857        4.5032146306
  C        15.3786966011        5.8323440662        6.4803984416
  H         7.8289092109        7.6709864134        2.2196523567
  H         7.9439538558        6.0874268770        1.4105404584
  C         6.1383941449        6.4440339435        2.3616858387
  N        11.5838232566       -0.2424698149        1.8500976944
  C        12.1598865720       -0.0145813978       -0.4126793942
  C        12.2112123378        2.1012656009       -1.6403343364
  H        11.9222664340        3.8600950922       -0.4696813352
  H        11.5670775339        1.6306463453       16.6325864554
  H        12.7614801890        2.8689171153       17.1022859587
  H        13.0689078390        1.0317496466       17.2149748467
  S         6.1900794709        6.3411145845       18.1295359247
  C         6.4750819100        9.0184033465       18.8306626785
  H        15.5889701342        6.6843050691        7.0204494703
  H        14.8258188748        5.0752852659        7.0697868943
  C        16.6839503119        5.3722483672        5.9347888098
  H         5.8960707056        5.6383575697        3.0247292896
  H         5.7561828453        6.0984106559        1.4009738610
  C         5.5526740842        7.7570882498        2.9643429422
  S        11.7101558544       -1.7586910617        1.2944894471
  N        12.0453977880       -1.4073486654       -0.2716992854
  C        12.3839156012        0.6070769335       -1.6632723331
  H        12.1676587888        2.5666106865       -2.5859409522
  C         5.9228212491        7.0672832219       19.8096790039
  N         6.0116290475        8.4125091796       19.9262635321
  O         6.7340071468       10.1886475112       18.6107057506
  H        16.6650632072        4.6917626059        5.0966625762
  H        17.1583665765        6.2164793647        5.5527734599
  C        17.5408982793        4.7685037579        7.0748382776
  H         4.7636338854        7.3697476987        3.5383174742
  H         6.0956537531        8.1923120883        3.8670083181
  C         5.3019065281        8.9672477849        2.0517596194
  C        12.5336166051       -0.1826122461       -2.8212491728
  S         5.5242125316        6.0582386334       21.1695966496
  C         5.8909638005        9.2319742896       21.0953535602
  H        16.9513035226        4.8542052348        7.9877931721
  H        17.7891435462        3.7432919857        6.9664465631
  C        18.8179445748        5.5596450066        7.3830735154
  H         6.0501833004        8.9814972482        1.1868729083
  H         5.5367904273        9.9187033362        2.5264097812
  C         3.9243152051        8.7936331209        1.5765983018
  H        12.5238690745       -1.2769451639       -2.5692496181
  C        13.0974528949        0.1452689554       -4.0118458591
  H         5.1902855299        8.8148862630       21.8123980522
  H         5.5238266701       10.2652222753       20.9650960270
  C         7.2618634156        9.3133100541       21.8031624200
  H        19.0657103670        5.2864597556        8.3493232689
  H        18.5960747260        6.6605028861        7.3921555585
  C        19.9029557398        5.3250565266        6.3081644446
  H         3.8413469922        7.8391888256        1.0833872041
  H         3.2031183771        8.7128070980        2.4143171114
  C         3.4868464995        9.8399624162        0.5302776035
  S        13.6914933120        1.6323966324       -4.6202388746
  C        13.2738525749       -0.9995668180       -4.9697561026
  H         7.4485905464       10.1916663446       22.3867508609
  H         7.9977874428        9.3010763861       20.9815650588
  H         7.4623276191        8.3918844731       22.3021071820
  H        20.3574415273        6.2974498811        6.1907213841
  H        20.7455333129        4.8066796937        6.7106559212
  H        19.6239666512        4.9126270205        5.3567648168
  H         2.6218525668        9.4665880703       -0.0125804798
  H         3.1712777828       10.8346953635        0.9247301010
  H         4.3641174689        9.9749988309       -0.1013256202
  C        13.8472726590        0.8406330634       -6.1909037220
  N        13.7695822517       -0.5114551313       -6.1785581699
  O        13.0571799419       -2.2381839167       -4.6995542281
  S        14.5078947816        1.5653364944       -7.6838501695
  C        14.1398435852       -1.4737760882       -7.2298274351
  H        14.4000559665       -2.4677711863       -6.8652469892
  H        15.0540740284       -1.1091052231       -7.7603755320
  C        13.0181835667       -1.4488020833       -8.2080629729
  H        12.0898179618       -1.7223892012       -7.8344782630
  H        13.3033858169       -2.1849746256       -8.9981072472
  H        12.9427400314       -0.5823857340       -8.8318816871
  H        -1.2008615728       14.6008386975       16.1619398176
  C        -2.2045253569       14.3672104808       16.3564938574
  H        -2.6850125515       15.2734426303       16.4977703809
  C        -2.1944471251       13.5575111731       17.6178751953
  C        -2.8656827640       13.6207190186       15.1909674578
  C        -2.0327589553       14.2849757483       18.9379021608
  H        -3.0980369248       12.8972549503       17.7236306073
  H        -1.3750248261       12.9285691956       17.5779664573
  H        -2.1371008055       12.8858113335       14.7724307178
  H        -3.6994965158       13.0948691070       15.5819574663
  H        -3.1469564733       14.2441058761       14.4318794955
  C        -1.6106956917       13.1632473974       20.0046819045
  H        -3.0482754343       14.5845765399       19.2445229927
  H        -1.2403943048       15.0318159069       18.8536183755
  C        -2.1930977511       13.5225406689       21.3535349244
  H        -2.1521753659       12.2073826366       19.7395009009
  H        -0.5159922659       12.9439502145       19.9633852635
  C        -1.2918329137       12.9658352619       22.4160196880
  H        -3.1701949871       13.0783647292       21.3453237098
  H        -2.2763652190       14.5751981591       21.6155448705
  C        -0.0431822103       13.8997381751       22.6163764728
  H        -1.8098280031       13.1656426579       23.3327909907
  H        -1.1099720675       11.9596415654       22.2407552842
  C         1.1505068704       13.1674904495       23.2478292620
  H         0.2615220544       14.3769975791       21.7084872957
  H        -0.2835001868       14.6354409762       23.3612321169
  C         1.5719625812       11.8391300918       22.6230965369
  C         0.7019699872       12.4600428199       24.5219598811
  C         2.3009461868       14.1218179121       23.4879077857
  C         1.3550550500       10.7227909568       23.4117080408
  C         2.0209906169       11.4510775477       21.3518604165
  C         0.8173925354       11.1327856213       24.6119527346
  C         0.1934285435       13.0604373751       25.6636641173
  H         2.3273926334       14.8438319324       22.6740568703
  H         2.1197703648       14.7879639225       24.3414807627
  C         3.6472565856       13.5117647293       23.7276172123
  S         1.8529435098        9.2822461837       22.6250684793
  C         2.2775582286       10.1044337813       21.1992077129
  H         2.0496221083       12.1533045802       20.5236965497
  C         0.4181442216       10.4326104953       25.7054950535
  H         0.3028310245       14.1028571381       25.7927238943
  C        -0.0738839070       12.3338708242       26.7616875158
  H         3.8956880213       13.0431310605       22.7498003100
  H         3.5074256617       12.7177448091       24.5362296576
  C         4.7952452276       14.4837162622       24.0469205070
  C         2.6402599697        9.3686464398       19.9447413880
  C         0.0017971178       10.9687392222       26.8718887686
  H         0.6634535673        9.3959016135       25.7061904679
  C        -0.4220640167       12.7819522274       28.0141961225
  H         5.4919883451       14.0351800533       24.7327755386
  H         4.3812596323       15.3846529536       24.4665546308
  C         5.4812526607       15.0316879566       22.7727857326
  C         2.6285587200        8.0005413949       19.6791962563
  C         3.0785920674       10.2037202519       18.7402637363
  C        -0.3955958111       10.3423927899       28.1766717344
  C        -0.5300580714       11.6773318190       28.8375050504
  S        -0.7808429662       14.2199713663       28.6590170518
  H         5.9431331876       15.9094548885       23.2195916625
  H         4.8023956524       15.3995333953       21.9981472500
  C         6.4811115124       14.0760613759       22.1597259850
  N         2.3709789755        7.0132157298       20.5806691889
  C         2.8947975624        7.4559788895       18.4310635815
  C         3.1422664925        9.6192776553       17.4638395720
  H         3.1733114467       11.2369888003       18.7272931995
  C         0.6341078310        9.3917632007       28.8532749950
  C        -1.7799056570        9.7120363508       28.1785946981
  C        -0.9397664175       12.1497479965       30.0854757165
  C        -1.1597280040       13.4755967007       30.0896609603
  H         7.3483826464       14.7441627272       21.9405107821
  H         6.8152054407       13.3065334031       22.7899837688
  C         6.1174063475       13.5180317497       20.8262374805
  S         2.4560286361        5.5539987848       19.8613429128
  N         2.7536195558        6.0646419392       18.3757525954
  C         3.1355754283        8.1252211043       17.2726548887
  H         3.3437163061       10.2905006267       16.6674247023
  H         0.7387120988        8.4765751546       28.2758039036
  H         0.2260335356        9.1365159137       29.8494027528
  C         2.0961623607        9.9093157314       29.0550818124
  H        -1.6229125026        8.7816203928       27.6807065473
  H        -2.0676472366        9.3790352661       29.1565570796
  C        -2.9350981967       10.5508429132       27.4463971922
  H        -1.1258382323       11.3000162113       30.8302372515
  C        -1.5538850732       14.2994961037       31.3318972011
  H         5.4257844498       14.1890517204       20.2760479521
  H         5.5881739509       12.5859053196       21.0338904133
  C         7.2964880480       13.2496467107       19.9129861594
  C         3.3272958742        7.4198959776       16.0339669241
  H         2.6939663555        9.4234647300       28.2860843642
  H         2.0258883241       10.9783090839       28.8414762671
  C         2.6301460796        9.8240494887       30.4716497827
  H        -2.6109097514       10.9897558669       26.5222884217
  H        -3.2994179781       11.2747615424       28.1249068187
  C        -4.0475789428        9.6250610016       27.0220590436
  C        -1.5187268267       15.6978103936       31.5266993328
  C        -1.8612130764       13.5052188144       32.5558111024
  H         8.1223006479       13.8380232029       20.2968620930
  H         7.6453437986       12.2162859009       19.9229196710
  C         7.0099535520       13.6547643665       18.4549101709
  H         2.8666571098        6.4202485924       16.0411129231
  C         3.5989228388        7.8615866503       14.7289854743
  H         2.5182832683        8.7600220517       30.7577262452
  H         2.0113406303       10.3635092448       31.2179643762
  C         4.1395734324       10.1603265896       30.5974594332
  H        -3.6368167867        8.7302233580       26.5386574776
  H        -4.4983800609        9.2329425714       27.9040179728
  C        -5.1024601936       10.4119463655       26.1335598312
  N        -1.3248403575       16.6314067064       30.5033560635
  C        -1.7613618396       16.3324232683       32.7338941988
  C        -1.9995448947       14.1112162726       33.8359301324
  H        -1.9575682306       12.4835313270       32.5226194685
  H         5.9783463700       13.3728485217       18.1649447513
  H         7.0873489583       14.6971842644       18.2546730047
  H         7.6918589902       13.1548621438       17.8290491064
  S         4.0055004686        9.4480858774       14.3082274408
  C         3.5299836401        6.8802626203       13.6305636002
  H         4.4531569813       10.9595018904       29.9129498363
  H         4.3205334563       10.4605122292       31.6553353343
  C         5.1093265254        9.0028456813       30.4606208118
  H        -4.6307913955       10.5776942910       25.1723433658
  H        -5.3483745040       11.3130862160       26.6061287075
  C        -6.3879831884        9.6992918644       25.8927122450
  S        -1.3237262999       18.1067430324       31.1457201827
  N        -1.6457539075       17.6915854381       32.7211792217
  C        -2.0466326547       15.6666966659       33.9618974001
  H        -2.0757735125       13.4619385100       34.7110469545
  C         4.1377992109        8.8128642985       12.6706242778
  N         4.0231627702        7.5165633052       12.4971994457
  O         3.2773393570        5.6508161321       13.7637405532
  H         6.0388322751        9.4981676363       30.5126500469
  H         5.0387811157        8.4908055627       29.5015932259
  C         5.0598428457        8.0011306689       31.5830350939
  H        -6.2448992908        8.7676965014       25.2510161494
  H        -6.8263407757        9.4396068692       26.8076286256
  C        -7.1950768385       10.6216024562       24.9786440130
  C        -2.2659338728       16.3756476100       35.1829666244
  S         4.4801906399        9.7595531143       11.3267960082
  C         4.0724362354        6.8380880574       11.2493395850
  H         5.6391815299        8.5042130577       32.3803386391
  H         4.0816583096        7.9397784381       31.9644415052
  C         5.6582749379        6.6519905715       31.1132256420
  H        -6.5911128860       11.0637355621       24.2053853599
  H        -7.5654338109       11.3480531495       25.6375326200
  C        -8.4733177540        9.8613186869       24.4079428241
  H        -1.9795286004       17.4246314764       35.1499905625
  C        -2.6708439840       16.0280345343       36.4240493394
  H         4.6896285116        7.3145862737       10.5669672944
  H         4.5505629869        5.8897473467       11.4212043717
  C         2.6945722188        6.8629869517       10.5918965967
  H         5.2249285373        6.3496894175       30.1400102843
  H         5.2679316956        5.8442129138       31.8060296734
  C         7.1955469570        6.5566711243       31.0718742917
  H        -8.9256764380       10.3978113065       23.5093022888
  H        -8.1506607165        8.8485235062       24.2481492353
  C        -9.7032436889        9.9544034361       25.4053826884
  S        -3.2403569846       14.4848303879       36.8577843801
  C        -2.6300188537       17.0259808338       37.5095948339
  H         2.9356014090        6.6750143929        9.5366382365
  H         2.0331096606        6.0952588992       11.0547035243
  H         2.2521054382        7.8487928897       10.7116425517
  H         7.4921403753        5.6855349216       30.5486377904
  H         7.4964402688        6.5609246780       32.1220375953
  H         7.5971422816        7.4831006246       30.5936055309
  H       -10.0232586652       10.9981414551       25.4834341351
  H        -9.5387576039        9.4674362653       26.3916782871
  H       -10.4777732757        9.3719813597       24.9332246896
  C        -3.6087073358       15.1161615935       38.4531127915
  N        -3.3358884779       16.4226262976       38.5347141294
  O        -2.2196619012       18.2034013843       37.4149923499
  S        -4.6787211230       14.2980350353       39.5788615402
  C        -3.5684767664       17.2454053894       39.7473797144
  H        -3.4545331453       18.3376145311       39.5224446122
  H        -4.5056247774       17.0008373081       40.2669406704
  C        -2.5283922286       16.7987479531       40.7436385772
  H        -2.9602949310       16.2278468073       41.5915249519
  H        -1.7653970298       16.1834376174       40.2700602981
  H        -2.1242179871       17.6821250872       41.2219127381
