352
i=
  H         2.5437105617        3.4682412685       12.1835114294
  C         3.2044348459        2.7110847294       12.5871897574
  H         2.9175368588        1.7617219059       12.1406594042
  C         4.6469872560        3.1575546242       12.0796954460
  C         3.1428613860        2.5537785483       14.0389846154
  C         4.8355128347        3.3095532010       10.5753037135
  H         5.3413369010        2.4256554044       12.5156202216
  H         4.8375229642        4.1523238103       12.5592238893
  H         3.4291007215        3.5158024879       14.5012064258
  H         3.7740158184        1.7474874786       14.4375300143
  H         2.0644366276        2.4482243207       14.2757012102
  C         4.8489343849        1.9416138130        9.8913739038
  H         3.9947387556        3.8744354791       10.1836678672
  H         5.7684815538        3.8487451954       10.3765955947
  C         5.3059806530        1.9450421893        8.4207270019
  H         3.8725611865        1.4275066675       10.0260316551
  H         5.6173985821        1.2952383102       10.3602420517
  C         6.7642185496        2.6429912429        8.2579031407
  H         4.5421944097        2.4743745088        7.8228243312
  H         5.3334464488        0.9048534878        7.9435756142
  C         7.9211533380        1.9360625446        9.1233883468
  H         7.1229669737        2.5483098388        7.2342710047
  H         6.6247378829        3.7611418548        8.2315584064
  C         9.1121193022        2.8651448771        9.3421819242
  H         8.3449219389        0.9748936162        8.6896657104
  H         7.5452226610        1.6476297498       10.1273907823
  C         8.7393112961        4.2028964443        9.9359600346
  C         9.4469337795        3.5363005736        8.0548619907
  C        10.2323036309        2.0941036607       10.0979861100
  C         9.0088123251        5.3176115946        9.1636608495
  C         8.3974547846        4.6359143303       11.2052725880
  C         9.4597132345        4.8736313880        7.9405447846
  C         9.9326072973        2.8714104748        6.9029068499
  H         9.9735207453        1.8473817787       11.1446334218
  H        10.4634327540        1.2229270202        9.6161667646
  C        11.5345686476        2.8883479957       10.3083848159
  S         8.5218152943        6.8156853944        9.8911268887
  C         8.1888436926        5.9704742142       11.3537423074
  H         8.0677067968        3.8258443245       11.8813782757
  C         9.9641313125        5.4711671244        6.8229366969
  H         9.8416973395        1.8402861430        6.9913773270
  C        10.3159044021        3.4871604483        5.7456857414
  H        11.3403289499        3.9018196309       10.8027308367
  H        11.9174358237        3.0473839092        9.2959670596
  C        12.5036572504        2.1762542699       11.1934324532
  C         7.7261051646        6.6128792512       12.6395897214
  C        10.3148132135        4.8652153676        5.6318350502
  H        10.1178442593        6.5740268466        6.8526789319
  C        10.7143911380        3.0627183693        4.4563747028
  H        13.2886495546        2.9625525874       11.2684499497
  H        13.0477544527        1.3644967006       10.8188554587
  C        12.0270513500        2.2513930035       12.6554883636
  C         7.6823919255        7.9839623648       12.8909919623
  C         7.3545875136        5.7243042983       13.7414316476
  C        10.7881794249        5.5198290663        4.3849157580
  C        10.9387703185        4.1806416439        3.6434799861
  S        10.9709773413        1.5308270863        3.6834691500
  H        11.2463414524        3.0151500064       12.9729765845
  H        11.6463663371        1.2553823988       12.7612618133
  C        13.1826360032        2.4016552517       13.5373167750
  N         7.8365414455        8.9925980199       11.8872740453
  C         7.4328093403        8.5022828422       14.1579896574
  C         7.1078433746        6.2676048152       15.0010115362
  H         7.1614350088        4.6801931699       13.6240072432
  C        12.1622022258        6.2261832354        4.6440679665
  C         9.7161479654        6.4476589931        3.6841103715
  C        11.2161811802        3.7454935010        2.3541973696
  C        11.2652010408        2.3886437904        2.1647249999
  H        13.7947790269        3.2524898049       13.4109985812
  H        13.7554219961        1.5088470376       13.2237311110
  C        12.6849633582        2.3026147013       15.0277619026
  S         7.9441748425       10.4228843961       12.7163478921
  N         7.5580900356        9.9030595502       14.1900158933
  C         7.1829992360        7.7253704401       15.2738327735
  H         7.0010166111        5.5579163288       15.7926197651
  H        12.0535121205        7.0164953898        5.3441821198
  H        12.5639391397        6.5877751617        3.7059810169
  C        13.2675255873        5.2806818267        5.1870366235
  H         9.2387753109        7.0825450240        4.4046913314
  H        10.1724465150        7.0387018620        2.8506572924
  C         8.6293215509        5.7039752298        2.9548988389
  H        11.2985559305        4.4836731812        1.6193290815
  C        11.5811091798        1.6591641960        0.8733503036
  H        12.1461908425        3.2219020333       15.3504013585
  H        11.9124859300        1.5860040302       15.2113867662
  C        13.9323081853        2.1006667986       15.8249167932
  C         7.0315033906        8.3810655348       16.5424001361
  H        13.0543478688        4.9356481772        6.1779206720
  H        13.5063706895        4.3832805750        4.6247475747
  C        14.5719320282        5.9985476915        5.3800706776
  H         8.2661718101        4.9325327089        3.6451865612
  H         9.0683825365        5.1994203195        2.0736782613
  C         7.3678922620        6.6071933447        2.6635627058
  C        11.6890870986        0.2698819884        0.7844482374
  C        11.9180586081        2.3700642018       -0.3696681783
  H        14.6741935410        2.8895896390       15.6252467540
  H        14.5219504375        1.1399207412       15.8046206926
  C        13.5491023527        2.2659363627       17.2612054336
  H         7.2859814033        9.4124342320       16.6616868767
  C         6.7831227120        7.8957758343       17.8247849952
  H        14.3529868515        7.0825060231        5.5616281694
  H        15.1011201440        5.9522230699        4.3968238878
  C        15.4078989174        5.4679459095        6.4563022788
  H         7.1286721119        7.2199566198        3.5899926165
  H         7.5854760966        7.2997974948        1.8676869610
  C         6.0768344365        5.8511173814        2.2164312959
  N        11.6009608181       -0.5805386835        1.8830801458
  C        12.0170161036       -0.4224113083       -0.3736439660
  C        12.3640828070        1.6897966897       -1.5201264531
  H        11.7570714533        3.4221206727       -0.4039098400
  H        14.4361886302        2.7883061377       17.7138764289
  H        13.4156147415        1.2522683248       17.5631040741
  H        12.6991600961        2.8915043441       17.4963898297
  S         6.3336654101        6.3031349943       18.3909039744
  C         6.7855210496        8.9552679712       18.9336354261
  H        15.1118611395        5.8405009475        7.3645066284
  H        15.2222835745        4.4371054207        6.5459735747
  C        16.9345395820        5.6574793061        6.2999322278
  H         5.8038823233        4.9452070495        2.7852118895
  H         6.3668299819        5.4689829581        1.2606899148
  C         4.8021344565        6.6428987439        2.0632961648
  S        11.5991751632       -2.0811180179        1.3368529165
  N        12.1249006132       -1.7924554019       -0.1751145963
  C        12.4077812826        0.2018363133       -1.5596582464
  H        12.7331477343        2.2544818045       -2.3733189683
  C         5.9705795626        7.0579025396       19.9020477728
  N         6.3069320496        8.3944529508       20.0645509908
  O         7.2096567823       10.0742525881       18.9134633226
  H        17.2500205592        4.9256633837        5.5258595519
  H        17.0930670190        6.6756149134        5.7860549727
  C        17.7296555604        5.2985641465        7.5308390127
  H         3.9608769465        6.0000014415        2.1534536541
  H         4.8589962997        7.3531843079        2.9204038938
  C         4.6425047212        7.3479136202        0.7230922134
  C        12.7076110044       -0.6122785523       -2.6956805155
  S         5.3737556321        6.0933558224       21.1811267335
  C         6.2707829117        9.0189750043       21.3700611949
  H        17.0181867458        5.2604236372        8.3173501270
  H        18.0287959610        4.2992671121        7.2629455315
  C        18.8574958418        6.2060648842        7.9339799051
  H         4.5393739559        6.6179565541       -0.0529149494
  H         5.4606304763        7.9464379859        0.3886706419
  C         3.3982538505        8.2524007217        0.6417342893
  H        12.2305110188       -1.5484398121       -2.6684666209
  C        13.2961680101       -0.2677282574       -3.9130299086
  H         5.5227232557        8.4753841306       21.9752991046
  H         5.9012119439       10.0369248347       21.2092629322
  C         7.5967887774        8.9579790655       22.0028072142
  H        19.2660562076        6.0230119734        8.9271100303
  H        18.4591058591        7.1807422994        7.9812764539
  C        19.9444070012        6.1887479641        6.8912378737
  H         3.0569274238        8.4576368229       -0.3627229351
  H         2.6586198164        7.6512034625        1.2217313639
  C         3.5299074455        9.6603263283        1.0567170343
  S        13.8881347652        1.2184681594       -4.4587887915
  C        13.4027904061       -1.4372056013       -4.8253645787
  H         8.2230179068        8.1822004197       21.6102156666
  H         7.4714888025        8.7543979697       23.0431483394
  H         8.1201681872        9.9017624147       21.7197482830
  H        19.5811194362        6.4880899165        5.9310827657
  H        20.7745766704        6.7646572238        7.3140345527
  H        20.2880949118        5.1729022095        6.8692070641
  H         2.9671185250        9.8881390534        1.9297163359
  H         4.5967379186        9.8435464556        1.3093701504
  H         3.3687065814       10.4105761902        0.2964298242
  C        14.0848242578        0.3633570251       -6.0141971197
  N        13.9985235985       -0.9778962789       -5.9268938135
  O        13.0600322367       -2.5784423779       -4.5812131663
  S        14.8023322188        1.0575109840       -7.4290760775
  C        14.2059047378       -1.7549241116       -7.1074100374
  H        14.4936220285       -2.8202665166       -6.9688555683
  H        14.9571403066       -1.4414935764       -7.6819332145
  C        12.9357565625       -2.0163916477       -8.0061377962
  H        13.1955938055       -2.6708318095       -8.7855684947
  H        12.5120529609       -1.0661648264       -8.2642935518
  H        12.2092886900       -2.4653411149       -7.4063612578
  H        -1.0657344701       14.6661420537       15.4977041358
  C        -1.9329227068       14.4722457586       16.0753732162
  H        -2.1218042304       15.2574001148       16.7536196196
  C        -1.6413020434       13.2904633198       16.8879888900
  C        -3.0535821563       14.2102640245       15.0965821117
  C        -2.2812638436       13.3710645338       18.2748078803
  H        -1.9928820511       12.3186360580       16.4489930834
  H        -0.5584368628       13.3013239200       16.9013782627
  H        -3.3652542443       15.0885078180       14.5375820714
  H        -2.7554257329       13.4526762086       14.3344866666
  H        -3.9471857142       13.8251027330       15.6459068788
  C        -1.2657367790       13.6299160815       19.3656697387
  H        -2.8754384301       12.3972716554       18.4447850352
  H        -3.0450749916       14.1898836375       18.3702844052
  C        -1.9333785355       13.6015716820       20.7276806352
  H        -0.3438495382       12.9504279323       19.3093280292
  H        -0.9699078852       14.6031220377       19.3611502401
  C        -1.0359924611       13.1084771575       21.8433134859
  H        -2.7063504252       12.8851317507       20.8271109200
  H        -2.4097999959       14.5303880700       20.9944719597
  C         0.0457309449       14.1059145690       22.2457063418
  H        -1.5477689914       12.8525932724       22.7504516995
  H        -0.6028182259       12.2257092460       21.4665468402
  C         1.3725611680       13.4601702207       22.7938975806
  H         0.3530307803       14.5266220379       21.3541269375
  H        -0.2684630386       14.9155120526       22.9314543888
  C         1.7340558125       12.1096581989       22.2460012746
  C         0.9338896250       12.7472069411       24.1001893119
  C         2.5864005062       14.4082740685       22.9048434347
  C         1.4951898247       11.0098350571       23.0755209308
  C         2.2899318555       11.6523728735       21.0695474471
  C         0.9827635697       11.4228011154       24.2311744005
  C         0.5620793593       13.3188813082       25.3596367829
  H         2.7836121025       14.9125437356       21.9739946247
  H         2.4180756048       15.0325935303       23.7225801990
  C         3.8030604853       13.6407861965       23.4006896774
  S         1.9930904321        9.4948414755       22.3646369217
  C         2.3265190992       10.3394663773       20.9299904760
  H         2.3535180805       12.3476353382       20.2493445349
  C         0.4897594734       10.7827554753       25.3200913086
  H         0.4719092864       14.3814575383       25.3011925145
  C         0.0330356767       12.7061909652       26.4347487933
  H         4.2136801143       13.0273325488       22.5704633823
  H         3.6170277850       13.0402871773       24.2902185168
  C         4.9585567243       14.6097740955       23.7519904071
  C         2.7177034565        9.5732227491       19.6979649736
  C         0.0220992839       11.3749072287       26.5185136550
  H         0.4754390197        9.7509898685       25.3775075751
  C        -0.5931748823       13.0821788084       27.6102824816
  H         5.6650703304       14.0363075918       24.4382182194
  H         4.6139796826       15.5795095843       24.1581189048
  C         5.7953518091       14.8666372400       22.4580688053
  C         2.5819241567        8.1765340663       19.3999984009
  C         3.3050184513       10.3424221753       18.5478963929
  C        -0.4348064576       10.6600852326       27.7459124221
  C        -0.8057681907       11.9922571475       28.4150374125
  S        -0.9056667421       14.5614860048       28.3899155859
  H         6.5260598096       15.5936018458       22.6218041529
  H         5.2443516602       15.3621874088       21.7492267026
  C         6.5434850291       13.7472868500       21.7311276646
  N         2.2119558180        7.2044721971       20.3129062269
  C         2.8521870438        7.6120685260       18.1811025559
  C         3.5653198888        9.7819471226       17.2906514750
  H         3.5863628717       11.3452214715       18.7282156896
  C         0.6847490083        9.9315632379       28.3798613795
  C        -1.7159013460        9.8114120429       27.5985542873
  C        -1.2052877071       12.3507997631       29.7519393845
  C        -1.2398224636       13.7616057928       29.8785834443
  H         7.5386573903       14.0359002078       21.5910361912
  H         6.5113927067       12.8779036888       22.3838372303
  C         5.8310831075       13.4133892611       20.3686900239
  S         2.0677788838        5.7634952070       19.5801825367
  N         2.7281441632        6.2133621491       18.1573933050
  C         3.3588500175        8.3343394665       17.0268415410
  H         3.9418747094       10.3993885574       16.4804876604
  H         1.0438143201        9.2135426276       27.6838589535
  H         0.2955402815        9.4925856228       29.2530007496
  C         1.9087674175       10.7770328590       28.8703029251
  H        -1.3873746196        8.8966446041       27.0241919053
  H        -1.9335284919        9.4238820665       28.5954201531
  C        -2.9710376018       10.5636975342       27.1063569559
  H        -1.3195665934       11.6202201129       30.4670460944
  C        -1.6297857854       14.4933243862       31.0606844047
  H         5.1114245865       14.1435757485       20.0050045813
  H         5.2435737083       12.4920831986       20.4483816900
  C         6.8770372911       13.0650725727       19.2529572150
  C         3.4561558119        7.7165994235       15.7722041083
  H         2.3008066669       11.3413391689       27.9669384374
  H         1.6293167596       11.4734505245       29.7170313760
  C         3.0956168705       10.0516981701       29.4916414525
  H        -2.6625144307       11.1922448919       26.3361122473
  H        -3.2907121431       11.3352601796       27.7984560808
  C        -4.1380084227        9.6075661660       26.7510731098
  C        -1.5488141442       15.9108465351       31.2443389632
  C        -1.7919749469       13.7768744248       32.3193775392
  H         7.4504378854       14.0260461172       19.1946483082
  H         7.5838800859       12.3257076454       19.6123947640
  C         6.3839879198       12.8770840159       17.8174099719
  H         3.2602614816        6.5815818474       15.7886248869
  C         3.8709397817        8.0944849805       14.5556224302
  H         3.6113980758        9.4640710444       28.7100306352
  H         2.8137327462        9.3195690286       30.2500710728
  C         4.2053919398       10.8472877405       30.1424124937
  H        -3.9773937541        8.8784790545       25.9772731282
  H        -4.3884446076        9.0748837292       27.6940227824
  C        -5.4396532910       10.3780325663       26.4052867942
  N        -1.2760292003       16.8073068256       30.2003213809
  C        -1.7217355529       16.6293029834       32.4262675732
  C        -1.9732242008       14.4322071851       33.5159122232
  H        -1.8411894095       12.7233016291       32.2005278911
  H         5.5348696450       12.2234144584       17.7166414798
  H         6.1933123078       13.8454221362       17.3333782350
  H         7.1721507927       12.3380438137       17.2904433682
  S         4.2971813620        9.7369086388       14.0774350450
  C         3.9295884848        7.0779514335       13.4785071611
  H         4.3643236958       11.8105077256       29.6030033957
  H         3.9565375523       11.1341335583       31.1143892835
  C         5.5475521669       10.0270691387       30.2854930068
  H        -5.4272585936       11.0965161136       27.2396992271
  H        -6.2419564798        9.7114452032       26.6321856262
  C        -5.3859359193       10.8622504593       24.9843495575
  S        -1.2698631902       18.3876973326       30.7472395977
  N        -1.6277714666       18.0673424750       32.3075326225
  C        -1.9359106296       15.8895892845       33.6507749748
  H        -2.1613422879       13.8852244265       34.4421593428
  C         4.5031227442        9.0037581031       12.4761889234
  N         4.3245648242        7.6448697544       12.3578607026
  O         3.9769427994        5.9037145163       13.7508113189
  H         6.1709768589       10.5145228726       31.1091305578
  H         6.0551587239       10.1718850540       29.2821845596
  C         5.4467975226        8.5061559771       30.6635926849
  H        -4.5789210921       11.6390732135       24.9045807269
  H        -4.9801957966       10.0587298105       24.3546695975
  C        -6.6532140631       11.4947584483       24.4156672403
  C        -2.1870171979       16.5274608707       34.9096167096
  S         4.6133950320        9.8826533510       10.9377343985
  C         4.0906371345        6.9393021882       11.0734741886
  H         5.0590375153        8.3678344576       31.6583111131
  H         4.7110231832        8.0327066195       30.0247626737
  C         6.7490437827        7.7663994113       30.5176394607
  H        -6.3978548884       11.7298083312       23.4123664210
  H        -6.7991893690       12.4831779763       24.8128375654
  C        -7.8608969135       10.5427360535       24.3238785620
  H        -2.0089264227       17.6187436178       35.0303347574
  C        -2.8030255324       16.1808473458       36.1113575724
  H         4.8596271646        7.2207273325       10.2385632656
  H         4.1573301948        5.8782434893       11.1055672451
  C         2.6669238031        7.1404280735       10.6462880833
  H         7.6005673408        8.3147276762       30.9176327354
  H         7.0279529355        7.6814377035       29.4766769672
  C         6.8249543611        6.4187517500       31.1079001158
  H        -8.4174929619       10.8498579566       23.4278295709
  H        -7.4925961696        9.5750887836       24.0488217291
  C        -8.8374368391       10.5448293115       25.6044336063
  S        -3.4152464897       14.6672552603       36.5806831004
  C        -2.9408570654       17.2260938744       37.1973605821
  H         2.2961967352        8.2057916878       10.5992430664
  H         2.7000067621        6.7172146334        9.6362320348
  H         1.8777916051        6.5612592954       11.2395174008
  H         6.8817050719        5.6370634938       30.3623195463
  H         5.9051252922        6.0918611005       31.5762655371
  H         7.6247000066        6.2581515393       31.8152212827
  H        -8.8953790204       11.5487409402       26.2005878301
  H        -8.6741652827        9.7434134698       26.3129611298
  H        -9.7233443480       10.2254261763       25.0539262722
  C        -3.7473789174       15.4111493817       38.1073322710
  N        -3.5669715817       16.7282233967       38.2405308245
  O        -2.4809586918       18.3445968511       37.0577949355
  S        -4.2230266161       14.5136900138       39.5811332580
  C        -3.7070328349       17.4940144776       39.4077209043
  H        -3.7921157951       18.5433383712       39.1472315138
  H        -4.6959054393       17.2522836452       39.9020822830
  C        -2.5353844955       17.3680516239       40.3452055787
  H        -2.7912507983       17.4799597016       41.3832323258
  H        -2.0664099347       16.4414609503       40.3040281833
  H        -1.6885541057       18.0713739798       40.0830810980
