352
i=
  H         2.5977860344        0.9066902726       12.7922949600
  C         3.3649234077        1.4648255672       12.1770664817
  H         4.0483676839        0.6690068148       11.8140136308
  C         2.7714148458        2.0092415572       10.9172108415
  C         4.0878048032        2.4168525215       13.0576617729
  C         3.7454498394        2.2810327350        9.8378604707
  H         2.1954822614        2.9452606690       11.1003899893
  H         2.0211277571        1.2587331509       10.5238471152
  H         4.8351927309        1.9864684392       13.7011797884
  H         3.4601847678        2.9893055276       13.7914568905
  H         4.5882306003        3.1512371198       12.4553208470
  C         4.6861425846        1.1033422598        9.2987635417
  H         3.3701257620        2.8840407997        9.0613012916
  H         4.4474208883        2.9889376215       10.2722045034
  C         5.5362091158        1.4598796037        8.0502638348
  H         3.9237228521        0.4166659384        8.9553526523
  H         5.3445111509        0.7063113897       10.0492104267
  C         6.6442446710        2.4584909525        8.3495867390
  H         4.8849988400        1.9239095737        7.3046553278
  H         6.0484061116        0.6052706805        7.5526466459
  C         7.9506825339        1.8945804535        8.8627967919
  H         6.9698320605        2.9986292064        7.4860749253
  H         6.2067201559        3.1097394374        9.0831014945
  C         9.1110307460        2.8550874805        9.0607495230
  H         8.1122681231        1.1469017748        8.1853644714
  H         7.7955928292        1.3805361603        9.8595213148
  C         8.7564416467        4.1673338783        9.7305037762
  C         9.5390196475        3.5185167246        7.8628360155
  C        10.2843605605        2.1295038120        9.7903790491
  C         8.9625092034        5.2979605483        8.9271579198
  C         8.1778384662        4.5548152796       10.9378351155
  C         9.4595937026        4.8603438640        7.7141010802
  C        10.0904449191        2.8555191781        6.7587820761
  H         9.7863671422        1.7545458458       10.6906672391
  H        10.5537169096        1.2339639905        9.1486652518
  C        11.6135414890        2.9836324046        9.9712140191
  S         8.6616104412        6.8206368270        9.6848321278
  C         8.0538703815        5.9015194111       11.0723242791
  H         8.0177760022        3.7677783526       11.6839021494
  C         9.9418369009        5.4359829746        6.5383777743
  H        10.1974956194        1.7695221677        6.8612547105
  C        10.5409969891        3.3870231578        5.5827092300
  H        11.3058603184        3.9359342782       10.4402972043
  H        12.0829820594        3.2936646468        8.9889957173
  C        12.6483012352        2.2952474482       10.8682192506
  C         7.6916877374        6.6375810598       12.3427323023
  C        10.3837068372        4.7442529425        5.4218994550
  H         9.9117998071        6.5205550928        6.4554041849
  C        10.9451572826        2.8490146523        4.3811967241
  H        13.5376709738        2.8781330766       10.7300532853
  H        12.6925513909        1.2061340097       10.5158663729
  C        12.2037763180        2.0732930241       12.3169995862
  C         7.7297739655        8.0347577730       12.6136460523
  C         7.3161757658        5.8175072987       13.5257103168
  C        10.8374704509        5.3367489634        4.1019231002
  C        11.0802563547        3.9500351500        3.4959197305
  S        11.1609071968        1.3496535185        3.6428364449
  H        11.2290199113        2.5502178897       12.3985069382
  H        12.0718799161        1.0126973572       12.4306877653
  C        13.1708467696        2.5810194765       13.3929798058
  N         7.9622271009        9.0607291030       11.6438549844
  C         7.4391254629        8.5535019111       13.8776973561
  C         7.0827083365        6.3591680745       14.8383169998
  H         7.1764763198        4.7432662302       13.3987425732
  C        12.1186210084        6.2264733789        4.1942356327
  C         9.6948126346        6.0370958371        3.2721859162
  C        11.4540618545        3.5026714069        2.2585808466
  C        11.5359905715        2.1483323116        2.2099968538
  H        13.6094023069        3.5394472696       13.0911084332
  H        13.9989348197        1.8631731065       13.1765532689
  C        12.7271440382        2.5814561850       14.8357916125
  S         8.0304723484       10.4907378901       12.4139087974
  N         7.6023785615        9.9639387686       13.9025044072
  C         7.1851094223        7.8169022345       15.0530799038
  H         7.0264127597        5.6759453167       15.6841869118
  H        12.0613542686        7.1567468434        4.8007094059
  H        12.5453402362        6.5921064790        3.2365970621
  C        13.3269403841        5.3795763266        4.7655152898
  H         9.2036536915        6.8232887329        3.9258800409
  H        10.0796689378        6.3938663797        2.3170937843
  C         8.4705411473        5.1902952882        2.9459689623
  H        11.8155839650        4.1740083938        1.4877405209
  C        11.9839575903        1.3252430722        0.9831958589
  H        12.1834694505        3.5277836610       15.2292624206
  H        11.9502147114        1.8195470301       15.0230211328
  C        13.7907447682        2.1257867616       15.9523813534
  C         6.9839519326        8.4513740487       16.3459241603
  H        13.0737682981        4.6694790873        5.5466700327
  H        13.5071873484        4.7968683645        3.9071027026
  C        14.6035461973        6.2372592094        4.9970840233
  H         8.0730279497        4.7085847083        3.8223896805
  H         8.6835442472        4.3144864989        2.3734092781
  C         7.3576671921        5.9926500935        2.2687307168
  C        11.9097741837       -0.0772215131        0.8008831454
  C        12.1931101993        2.0894645989       -0.2742055254
  H        14.5380208727        2.9350942116       15.9822366891
  H        14.3139213998        1.2358423483       15.7986253099
  C        13.0320974500        2.0506631439       17.2894423464
  H         7.3030359646        9.3872468430       16.2968594696
  C         6.7329480541        7.9310365756       17.5614134418
  H        14.3952079997        7.1909237551        5.5768126135
  H        15.0439823558        6.4671854328        4.0976602515
  C        15.5641282520        5.3646790556        5.8087689778
  H         6.9776085884        6.7111453690        2.9678587088
  H         7.7682379517        6.4900330279        1.4322440362
  C         6.2075677741        5.0607865687        1.7934892356
  N        11.8616170072       -1.0060246469        1.8523234060
  C        12.1685864102       -0.7116447406       -0.3629566555
  C        12.2437707429        1.4541695758       -1.5018433615
  H        12.3502542937        3.0894395881       -0.1773523974
  H        13.6176776668        2.6128622840       18.0292912811
  H        13.0326039009        1.1273891880       17.8266792806
  H        12.0725083510        2.6200265309       17.1991571658
  S         6.2386640205        6.3628387923       18.0366032179
  C         6.8425347639        8.9147615208       18.6731098331
  H        15.1723633203        5.1224305073        6.7922705079
  H        15.7699089889        4.4496149819        5.2818092102
  C        16.9909422589        6.0041686240        5.9682186045
  H         5.9100106780        4.4215647726        2.6485615431
  H         6.6348622526        4.3989029757        0.9596321972
  C         4.9722858413        5.8257363854        1.3250475067
  S        11.5737286640       -2.4464436002        1.2851799710
  N        12.0565677786       -2.1234547817       -0.2336244956
  C        12.4222914212       -0.0230347861       -1.6069812460
  H        12.2913079692        2.0110477381       -2.4063484839
  C         6.1328192290        7.0462126012       19.6828561448
  N         6.3782347053        8.3191401433       19.8062133687
  O         7.1960636528       10.0810776949       18.5945475936
  H        17.3785072481        6.1126245204        4.9427153672
  H        16.8436086662        6.9817415532        6.4561669409
  C        17.9478601860        5.1868968938        6.7581942603
  H         5.0890498256        6.1946195754        0.3237689524
  H         4.2327314305        5.0581154070        1.3196406771
  C         4.5149606496        6.9834048345        2.1614770478
  C        12.7899092925       -0.7976910549       -2.7902236509
  S         5.7568346294        6.2150383125       21.1568005336
  C         6.3592128209        9.1278412737       21.0027750548
  H        17.5313417167        4.9673639922        7.7094596142
  H        18.1583751539        4.3172655584        6.2009039886
  C        19.2982804228        5.8308937321        6.9436721091
  H         4.9214733022        6.8253094984        3.1380083814
  H         3.4518013467        7.0044076748        2.2137566302
  C         4.9179194598        8.3348385427        1.6021814562
  H        12.2649977789       -1.6919449181       -2.8325163018
  C        13.2222197102       -0.4488481766       -4.0508381996
  H         5.5496221888        8.8375828901       21.6194591360
  H         6.0002433150       10.1063697259       20.7561072463
  C         7.6935487469        9.1939968064       21.7567613161
  H        19.8279763353        5.4317053475        7.7622025007
  H        19.1248228233        6.9248441324        7.1099218937
  C        20.0461893159        5.5827009212        5.6995148200
  H         5.9076272661        8.5972000537        1.9194304226
  H         4.9458683155        8.3725327199        0.4942011751
  C         3.9136015123        9.4242217800        2.0082342849
  S        13.8316148988        1.1150138541       -4.5270203453
  C        13.1865103557       -1.4155328760       -5.1530825403
  H         7.7976615356        8.2339012684       22.3348188065
  H         7.8059726646       10.0698262687       22.4613548675
  H         8.5798192315        9.2581336082       21.0789563883
  H        19.4698646432        5.4892271559        4.8042845467
  H        20.6031127537        6.5225206391        5.6630658821
  H        20.7211220985        4.7926590455        5.7072270192
  H         2.8488693570        8.9771857685        2.1107429659
  H         4.0464763576        9.6796420409        3.0753886696
  H         3.8881471692       10.1977916277        1.2840098676
  C        14.1060058448        0.4300625269       -6.1356275055
  N        13.7880150828       -0.9083381221       -6.2425995349
  O        12.8847020120       -2.6107015533       -4.9688960062
  S        14.7610738661        1.3307237641       -7.5139782710
  C        13.8913373659       -1.6985222582       -7.4485536417
  H        13.9023244279       -2.7469067618       -7.2814828978
  H        14.8790456408       -1.4607971908       -7.9289438661
  C        12.6834183410       -1.3550596743       -8.3215629255
  H        12.0989213452       -0.6176549304       -7.7897020515
  H        12.0074969687       -2.2110473210       -8.4906057031
  H        13.0434179531       -0.9189030732       -9.2901528082
  H        -2.7662420515       15.2148406679       15.9278934450
  C        -2.8524309769       14.3055982553       16.5476396170
  H        -3.8673499523       14.1469105044       16.8032633632
  C        -1.9234397816       14.4829265833       17.7309750792
  C        -2.4374941036       13.1653211907       15.7015741106
  C        -2.4388115660       13.6115130340       18.9558049536
  H        -0.9219587378       14.3066083068       17.4618215571
  H        -1.9761569425       15.5173884653       17.9668542918
  H        -2.7783090729       13.2094508958       14.6848398580
  H        -1.3387453575       12.9284010122       15.8042960379
  H        -2.8412788974       12.2242051675       16.0904157096
  C        -1.3808311890       13.2756896258       20.0228307966
  H        -2.6556582383       12.5302135241       18.6348553644
  H        -3.4019701622       13.9582731985       19.4647141861
  C        -1.8927702294       13.1379974869       21.4776559317
  H        -0.8783120395       12.3205853142       19.7252768302
  H        -0.6235054306       14.0262880642       19.9689158630
  C        -0.8477561471       12.3794605313       22.3609213274
  H        -2.8118235748       12.6229042127       21.4869683703
  H        -2.1610825429       14.1226621021       21.9672473974
  C         0.4668737101       13.2342234267       22.4811175666
  H        -1.3199367352       12.1219836199       23.2642529057
  H        -0.6771340845       11.4202053664       21.9156742213
  C         1.4917639655       12.4756786890       23.2088232857
  H         0.7937050227       13.5857253671       21.5846925862
  H         0.3222084053       14.1430766759       23.0911746559
  C         1.8322751587       11.1600679589       22.5110918822
  C         0.9751804411       11.7393190730       24.4233556533
  C         2.6503946110       13.4416005981       23.5083982808
  C         1.5374204498       10.0147221205       23.2678128578
  C         2.4155563624       10.9090204289       21.2659225808
  C         1.0168404905       10.3608150099       24.5018453111
  C         0.4726512246       12.3525361788       25.6138508105
  H         2.8669964281       13.9403934898       22.5484560602
  H         2.3097946848       14.2939597324       24.0899993180
  C         3.9079125641       12.7657462787       24.0875857457
  S         2.1126280756        8.6440712362       22.5642555781
  C         2.3128178413        9.5427081711       21.0722964950
  H         2.6552936964       11.7323086081       20.6301509516
  C         0.6706876138        9.7595377692       25.6902189917
  H         0.6696763231       13.4358268766       25.6473726445
  C         0.1100972537       11.6409243635       26.7606194019
  H         4.1751220318       11.9005000139       23.3968742931
  H         3.6093308270       12.1826671197       25.0163234226
  C         4.9528572781       13.9004568155       24.2958723933
  C         2.6996192979        8.9088237904       19.8139549452
  C         0.1806115747       10.3080279519       26.8375447537
  H         0.6161871379        8.6460865483       25.6393154848
  C        -0.2355823132       11.9841932375       28.0506379089
  H         5.6624182018       13.4864737041       24.9827705858
  H         4.4435841614       14.6698191410       24.8658556755
  C         5.7535397125       14.4107085500       23.0734029806
  C         2.7018331165        7.5183291918       19.5556010736
  C         3.0863502573        9.7373785789       18.6864344329
  C        -0.1798230051        9.5623741332       28.0529421617
  C        -0.4638411172       10.8779474720       28.8218475711
  S        -0.5775431502       13.4651369670       28.8810865917
  H         6.5495130267       15.1517590879       23.3650271629
  H         5.1258983963       15.0641591947       22.4228129905
  C         6.4707441021       13.4442149153       22.1947316744
  N         2.4675973960        6.5632895251       20.5294405567
  C         2.8767184503        6.9789110704       18.2827604557
  C         3.3398295252        9.1502246598       17.4316038041
  H         3.1329746817       10.8405246263       18.6513594074
  C         0.9090037045        8.7901151883       28.8317419360
  C        -1.4393309810        8.8395837244       27.7048613263
  C        -0.7263302761       11.2543800221       30.1742645530
  C        -0.8921190069       12.6172571392       30.3489268061
  H         7.5145425108       13.4317588376       22.5410102770
  H         5.9971197072       12.4865844114       22.4387557006
  C         6.2904892011       13.7389674777       20.7076976002
  S         2.5522711517        5.0555016018       19.7953966460
  N         2.6654908807        5.6058201183       18.2591099518
  C         3.1922014399        7.7140322441       17.1628077936
  H         3.5665898981        9.8083678538       16.6228256389
  H         1.0754502057        7.9221161804       28.1858427609
  H         0.4290810013        8.5579618374       29.7886623947
  C         2.2099068857        9.6093644619       29.0998230418
  H        -1.3029568198        8.1724982338       26.9259318075
  H        -1.6273766239        8.1877624453       28.5731398947
  C        -2.6806863579        9.6027912293       27.3944018813
  H        -0.8580398365       10.4152887056       30.8509670006
  C        -1.2450634764       13.2607440370       31.6823559356
  H         6.3181313952       14.7304894208       20.2938873179
  H         5.3777760393       13.2702114490       20.4506051457
  C         7.4634133178       13.2853542812       19.8770672327
  C         3.4977676694        7.1016357684       15.9042403876
  H         2.9619918961        9.2640735590       28.3994437118
  H         2.1658429206       10.6431221367       28.8876593861
  C         2.7978072452        9.5074147354       30.5342949499
  H        -2.4791768541       10.1937223137       26.4624910055
  H        -2.8216390654       10.3794904261       28.1045194522
  C        -3.9228173690        8.7167286248       27.2408117475
  C        -1.3976628005       14.6386717334       31.8591566118
  C        -1.3209060096       12.4616691598       32.9342840751
  H         8.3339971832       13.9562623162       20.1810979642
  H         7.8645336128       12.3296880789       20.1876783779
  C         7.0783907342       13.4135044928       18.3820312189
  H         3.4146781039        6.0583777330       15.9687571798
  C         3.8239510410        7.6212995059       14.6557492007
  H         3.0077388231        8.5112350887       30.8319442404
  H         2.1083478472        9.7917360015       31.3488437287
  C         4.0986891234       10.2351082766       30.6156324387
  H        -3.7351272398        8.0018267537       26.3906009243
  H        -4.0230337428        8.1405602415       28.1996566131
  C        -5.1963319911        9.5260253574       27.0285777322
  N        -1.1393452016       15.5492259246       30.8369122856
  C        -1.5995940325       15.2426945091       33.0736564008
  C        -1.6081141436       13.0072451264       34.1366151747
  H        -1.1111549377       11.3735211061       32.7537018165
  H         7.1673204175       14.4435720101       17.9708946925
  H         7.6798675494       12.7503603124       17.7765816731
  H         6.0968986211       12.8996290959       18.2135088259
  S         3.9856300357        9.2583224436       14.1679847353
  C         4.1140929800        6.6913068298       13.4948734596
  H         4.1051862329       11.0924787492       29.9364936790
  H         4.3629727403       10.6072382999       31.6120321539
  C         5.2918593906        9.4245623599       30.1537875118
  H        -5.0252492162       10.5677011042       27.3397527787
  H        -6.0373946357        9.0650426495       27.5314883694
  C        -5.6386619767        9.5488713216       25.5388229573
  S        -1.3294944320       16.9870328094       31.4597539069
  N        -1.6096244722       16.6248960208       32.9905492537
  C        -1.8070221010       14.4540799428       34.2383852402
  H        -1.8332402830       12.3568965941       34.9940309061
  C         4.3424456781        8.7337741968       12.4921347207
  N         4.4487362947        7.4032525710       12.3883529380
  O         3.9924419135        5.4496084724       13.5515954236
  H         6.1542636266       10.0445985619       30.1326340740
  H         5.2218549397        9.0048716276       29.1649023240
  C         5.6486813024        8.2782293250       31.0574876762
  H        -4.9398860641       10.1798015864       25.0385015491
  H        -5.5401571389        8.5792868268       25.0015376782
  C        -6.9845758679       10.2176710524       25.4335530540
  C        -2.1965270438       15.1874576855       35.4022280312
  S         4.8629739240        9.8017861562       11.2123498585
  C         4.5952509700        6.7458828613       11.0767748369
  H         5.9493210371        8.5980865837       32.0806597629
  H         4.8650049836        7.5127674788       31.2588038454
  C         6.7578265658        7.4208269532       30.3360456673
  H        -7.1082672454       10.4558496371       24.3510750169
  H        -6.9090818519       11.2149701752       25.9312317256
  C        -8.1017760094        9.2579185106       25.8935822210
  H        -2.0617402535       16.2667695260       35.4019942198
  C        -2.8361854000       14.8248293531       36.5764105924
  H         5.1895493922        7.3924144860       10.4029384074
  H         5.1593783788        5.8192984276       11.0152718915
  C         3.2003369937        6.5238166353       10.4686966862
  H         7.5564316309        8.1156402345       30.0956553157
  H         6.3510628821        7.0132416226       29.3894278936
  C         7.3128434469        6.3356539537       31.3169313445
  H        -8.0207004892        8.3187934095       25.4204379674
  H        -7.9785384234        8.8845755108       26.8889691500
  C        -9.5191902405        9.7661699185       25.5784441893
  S        -3.3464426386       13.2479156850       37.1344676249
  C        -2.9334728108       15.9300975700       37.5992082617
  H         3.2560416100        6.0234269360        9.5250899193
  H         2.5962875832        5.9425790821       11.0856752540
  H         2.7779608165        7.5037419657       10.2496279655
  H         6.6887222063        6.0943200394       32.1594501173
  H         8.2276316854        6.7224232733       31.7028299751
  H         7.5302256017        5.4511246358       30.7033075927
  H        -9.5136081566       10.8006196617       25.8963597569
  H       -10.2364174834        9.1137554326       26.1234366260
  H        -9.7014770421        9.4889509090       24.5348276381
  C        -3.9687322835       14.1129032502       38.5539151638
  N        -3.7049854594       15.4430799472       38.5905725189
  O        -2.5038566707       17.0557784996       37.4910131452
  S        -4.7940671272       13.4258051827       39.9469367200
  C        -3.8243003982       16.3185623847       39.6614828159
  H        -3.7633439014       17.3328785359       39.4530742502
  H        -4.8645797394       16.2025467826       40.0262052473
  C        -2.7323678741       16.0503213323       40.7968494049
  H        -1.6968681414       15.8266964499       40.3717516649
  H        -2.6937090538       16.9520580148       41.4705921844
  H        -3.0334737569       15.2266163037       41.4436619984
