352
i=
  H         5.2845678996        2.5240688339       12.4832087405
  C         4.2695596696        2.7392010904       12.8172150606
  H         4.3427158103        3.7680244654       13.0061612747
  C         3.1868394377        2.5507149134       11.8203621665
  C         3.8177731234        2.1779186552       14.1137123798
  C         3.8043441921        2.6427181947       10.4020747684
  H         2.4897411055        3.3533041171       11.9204200804
  H         2.6798280323        1.5832531391       11.8997867537
  H         2.8087047464        2.1348809664       14.3081655850
  H         4.2400827142        2.7002579267       14.9766117947
  H         4.1277900213        1.1677859570       14.2706922968
  C         4.5651316093        1.3385632577        9.8404602385
  H         3.1019581750        2.9029265619        9.6311277891
  H         4.5523261916        3.4516538880       10.4440150763
  C         5.2753109745        1.6259474915        8.4683261283
  H         3.8442332702        0.5060691480        9.6734680482
  H         5.3518225774        1.0197512755       10.4826343113
  C         6.4782662920        2.5894289796        8.6232258636
  H         4.6009161482        2.1143768171        7.7547832291
  H         5.5249602719        0.7684573465        7.8811285520
  C         7.8207644480        1.7583129656        9.0035312449
  H         6.7361675132        3.0680119153        7.6778547325
  H         6.2964707694        3.4001066589        9.2437908650
  C         9.0087694547        2.7168124867        9.1814097431
  H         7.9563832705        1.1079608104        8.1694717705
  H         7.6966948804        1.2261770174        9.9480297036
  C         8.6961531610        4.0459330776        9.8664517489
  C         9.3757065309        3.4864895163        7.9236820028
  C        10.2325078952        2.0082963819        9.8554831584
  C         8.9719835808        5.1817596711        9.1276895200
  C         8.1091892734        4.4468398624       11.0885795924
  C         9.3769073982        4.8242468077        7.8833213061
  C         9.7525954318        2.9152770288        6.7259579614
  H         9.8918005459        1.3815225328       10.6665659012
  H        10.7566669566        1.4286778377        9.0762430841
  C        11.3721374109        2.8559684656       10.4246233507
  S         8.5758648309        6.7014355083        9.9372497884
  C         7.9453948977        5.7796690144       11.2657198512
  H         7.7747982204        3.6587553503       11.6881776789
  C         9.7571680177        5.5129680667        6.7356751323
  H         9.6366098551        1.8136952389        6.7898534394
  C        10.1721496173        3.5847305136        5.6498093822
  H        10.9678559401        3.6945517612       10.9379134456
  H        11.9368676059        3.2519728690        9.5376668594
  C        12.3277974018        2.0602566264       11.3804730909
  C         7.3623257326        6.4169947161       12.5346283523
  C        10.1863596409        4.8923634158        5.5917082876
  H         9.7654286571        6.5587715167        6.7525641626
  C        10.6817775182        3.1861118105        4.4326468796
  H        13.2206837424        2.6855676012       11.4564518313
  H        12.6105216320        1.0578406640       10.9789289075
  C        11.7056963795        1.8728320342       12.8010211199
  C         7.4404574250        7.7854509540       12.8783619037
  C         6.9083985396        5.4652646731       13.6201064880
  C        10.5402023637        5.6305154714        4.3123349856
  C        10.8959863626        4.2670385411        3.6159596713
  S        11.0357970855        1.6381236300        3.7221902353
  H        11.3288608360        2.8974878004       13.0341919916
  H        10.9379229022        1.0388043128       12.8221159222
  C        12.6314526716        1.4649936897       13.8626960656
  N         7.9212786024        8.7795090370       12.0848800578
  C         7.0467211361        8.2680084450       14.1544057456
  C         6.6831214865        6.0000446113       14.9171130533
  H         6.5685106310        4.4709875937       13.4075409684
  C        11.8203194159        6.5130341741        4.4408695434
  C         9.3428888019        6.3931003776        3.6918510671
  C        11.3447594543        3.8696938986        2.3092942452
  C        11.5189617890        2.5197053926        2.2809647413
  H        13.3852994410        2.2096556558       14.1341951783
  H        13.2163171319        0.6126986640       13.4636332518
  C        11.8544346527        0.9235019473       15.0646716355
  S         7.7212894595       10.2157867951       12.7931938715
  N         7.0869588779        9.6713778191       14.2330516708
  C         6.7809163915        7.4415289014       15.2555038544
  H         6.2291010992        5.3531633748       15.6622607757
  H        11.6266781641        7.3168053548        5.1971902594
  H        12.0295333033        6.9128749715        3.4833212760
  C        12.9800138764        5.6567915207        5.0567384477
  H         9.2129924812        7.1893295372        4.4922913046
  H         9.5887630793        6.8876691066        2.7345697211
  C         8.0141454043        5.5303037069        3.5989036107
  H        11.6036790729        4.6404013441        1.5935443211
  C        12.0533898422        1.8620929617        1.0986536868
  H        11.0712284660        1.7001638287       15.3784072719
  H        11.3583886060       -0.0380450507       14.8767263363
  C        12.9184361480        0.5574463078       16.1707554991
  C         6.6652992672        8.0495412965       16.5929939337
  H        12.8176843385        5.3203130662        6.1202578135
  H        13.2774890398        4.7125606459        4.4499341493
  C        14.2369671029        6.5062795974        5.1663139774
  H         7.6599019970        5.1058907576        4.5281296765
  H         8.1535645915        4.6318429580        2.9460472515
  C         6.7924415908        6.2852602747        3.0055363889
  C        12.0802018425        0.4696601760        0.9281582153
  C        12.2738986432        2.6149086820       -0.1565814839
  H        13.8700377592        0.2945286334       15.6698033868
  H        12.5432154634       -0.2288193770       16.8672509209
  C        13.2001207823        1.7923262270       17.0604147034
  H         7.0989205572        9.0958313106       16.6282898938
  C         6.2973311383        7.5805939287       17.8447322980
  H        14.0721255509        7.3006490018        5.9109457029
  H        14.5114750596        7.0221322999        4.1835396478
  C        15.5025147317        5.6231941341        5.4780539634
  H         6.4349219708        7.1614708020        3.5916006127
  H         7.1736612074        6.7424737224        2.0310923643
  C         5.5869126222        5.3455807133        2.7308547919
  N        11.6235937268       -0.5230342320        1.8268207396
  C        12.4536432505       -0.1470307830       -0.2654012718
  C        12.6181903176        1.9991154224       -1.3720983089
  H        12.1823574426        3.7067116425       -0.1179243815
  H        12.3000942718        2.3537404023       17.2244193085
  H        13.9656281596        2.5253780393       16.5884343974
  H        13.5344595635        1.5455869026       18.0269990888
  S         5.8160614771        6.0498089280       18.2462010913
  C         6.3323519483        8.5490448267       18.9546917543
  H        15.4005545594        4.5378341761        5.5118942025
  H        16.1021881544        5.7959823349        4.6182361917
  C        16.2816160185        6.0906123972        6.6888266924
  H         5.2152809370        4.6775107376        3.5451716596
  H         6.1021423051        4.6325350889        2.0495322405
  C         4.3497708970        6.0542282923        2.0670051282
  S        11.8593515583       -2.0173459948        1.2055465278
  N        12.4711569351       -1.5699899093       -0.1932236920
  C        12.6863365159        0.4995013863       -1.5015058064
  H        12.6658670879        2.6149381983       -2.2708897963
  C         5.4673954535        6.6227887591       19.8256243665
  N         5.8133564229        7.9216486398       20.0577462995
  O         6.6604130924        9.7505276929       18.7833160368
  H        16.6662858911        7.0664056646        6.3184762526
  H        15.6055376313        6.1601336866        7.5335841268
  C        17.5006266357        5.1215337549        6.7492180675
  H         4.3516139395        6.0550963730        0.9734366047
  H         3.4308297859        5.4616250645        2.1795731480
  C         3.9952615167        7.4993961119        2.4810801716
  C        12.9297680281       -0.3278063727       -2.6774168175
  S         5.1640804119        5.4564018134       21.0625132134
  C         5.8244162651        8.5939232931       21.3781823663
  H        17.2437863492        4.2466543464        7.3626023477
  H        17.6781642156        4.7576927906        5.7120379843
  C        18.7443110083        5.8664361513        7.2249832610
  H         4.4506770976        7.7216522823        3.4515705127
  H         2.8858007993        7.5758007448        2.5935435241
  C         4.6114056306        8.5736966822        1.5325515763
  H        12.7226544481       -1.3712245399       -2.5824717771
  C        13.2976301930       -0.0076685121       -3.9659062434
  H         5.2070986868        8.0257569774       22.0812296850
  H         5.2628463234        9.5290783644       21.2542425665
  C         7.1607722568        8.8108235969       21.9940923981
  H        18.9931795279        5.4310343384        8.2465864726
  H        18.3247634967        6.8544123352        7.3877626999
  C        19.8373015236        5.8241916592        6.1644230015
  H         5.0710217760        9.3248173340        2.0702277578
  H         5.4050215491        8.0435362652        0.9527080312
  C         3.5695370744        9.2307959005        0.6534429585
  S        13.7979286041        1.5959462660       -4.5508857191
  C        13.3565132310       -1.0463217372       -4.9581729357
  H         7.0129845222        8.8163639638       23.0784447032
  H         7.5183668275        9.7737401841       21.7115827688
  H         7.8174890613        7.9980325629       21.6821196419
  H        20.2090615337        4.8279264578        6.0948651822
  H        19.4190664614        6.2275936832        5.1981594527
  H        20.7164715182        6.3664835390        6.4905848742
  H         4.0438350839        9.4009791043       -0.2887820754
  H         2.6716123944        8.6318603116        0.4307177055
  H         3.4094827653       10.1861545948        1.0804239212
  C        14.1708422012        0.8553115750       -6.0410909249
  N        13.9998607911       -0.5368113356       -6.0335222284
  O        12.9575741590       -2.2157374459       -4.8071540760
  S        15.0763354168        1.5929035230       -7.4486060751
  C        14.0844359977       -1.2604823047       -7.2906651631
  H        14.2277956614       -2.2949868762       -7.0363664305
  H        14.8840974809       -1.0029811601       -7.9617244111
  C        12.7213835576       -1.1624391911       -8.0067888160
  H        11.9006452044       -1.6469247495       -7.4752031444
  H        12.8558023231       -1.6559359046       -8.9603196133
  H        12.5140612767       -0.0683300809       -8.2544620093
  H        -3.9548980453       14.5226269218       16.5240849783
  C        -3.5844234780       13.5108718468       16.6747661624
  H        -4.3939646966       12.8107895387       16.7570944747
  C        -2.5951179211       13.3661414711       17.7940264205
  C        -2.9408207646       12.9742074873       15.4444274630
  C        -3.0858461050       13.5570902834       19.2082383491
  H        -2.3575035107       12.3399395602       17.8012287459
  H        -1.7267385493       14.0128577564       17.5581621971
  H        -2.3979928134       13.7371769453       14.9283711799
  H        -2.1268201643       12.3444804430       15.6018219292
  H        -3.6508107885       12.5001176549       14.7702833538
  C        -1.9016944353       13.8804599504       20.1087639996
  H        -3.3012740136       12.6179949065       19.5935700757
  H        -3.8956050234       14.2373103683       19.3945258932
  C        -2.3082420836       13.7103484239       21.6231161366
  H        -1.0751432661       13.2812333331       19.7898809627
  H        -1.5749041109       14.8407160896       19.8262594526
  C        -1.2395390583       12.9452734872       22.3686742550
  H        -3.1749060381       13.1152784685       21.7973159134
  H        -2.5797540038       14.6302140107       22.1358770742
  C        -0.0717408863       13.8770994476       22.5760968204
  H        -1.6654274906       12.5307758813       23.2475648772
  H        -0.9836104396       12.0190043983       21.8330094925
  C         1.1654008934       13.1267802849       23.2509737344
  H         0.3034462171       14.3135856065       21.6486478630
  H        -0.4124292531       14.7190214444       23.1684271602
  C         1.5143541114       11.8220212907       22.4986511556
  C         0.6929032607       12.2944215820       24.4419198582
  C         2.3912058072       14.0715691354       23.5446323654
  C         1.4061581814       10.6777736700       23.3234189173
  C         1.9990143217       11.4803883972       21.2225369687
  C         0.8775058924       10.9922587375       24.5157012204
  C         0.1988680224       12.8854563814       25.5907415061
  H         2.8665248564       14.4580971598       22.6353119723
  H         1.9901236654       14.7541517888       24.2587106024
  C         3.5042060523       13.3599045073       24.2484266122
  S         1.7521281268        9.1887480749       22.5104049968
  C         2.0173460655       10.0687528081       21.0563712810
  H         2.1632809935       12.3120727006       20.6265684432
  C         0.4161390189       10.3736000463       25.6483961615
  H         0.1510114963       13.9547269629       25.7175625335
  C        -0.0479927314       12.2875928550       26.7675929733
  H         3.9138375712       12.6210272537       23.5997915253
  H         3.1287618524       12.8003179631       25.1270583138
  C         4.6642031748       14.3014082617       24.6406089165
  C         2.4156519159        9.3249706093       19.8073965139
  C        -0.0001587237       10.9300605701       26.8447531579
  H         0.6274278866        9.3354711978       25.6183488682
  C        -0.4066677963       12.6594021541       28.0616143387
  H         5.3933233704       13.8784276650       25.3170282910
  H         4.3044406556       15.1807002816       25.1402962858
  C         5.3778897461       14.7882227925       23.3986098907
  C         2.1876238036        7.9193082296       19.5702570201
  C         2.9570216434       10.0918223769       18.5809715166
  C        -0.4675231741       10.2516725742       28.0602485417
  C        -0.6905742001       11.5597907622       28.8643441623
  S        -0.7736182391       14.1467183388       28.8116683465
  H         6.1705501687       15.4570407161       23.7530408401
  H         4.6823576794       15.3906565290       22.8200670188
  C         6.0919604608       13.7548066269       22.4898918461
  N         1.8156542414        6.8842145020       20.4402321667
  C         2.3969758051        7.3667068314       18.2481880714
  C         3.2248459318        9.4906468064       17.3918507765
  H         3.1746806671       11.2003037978       18.6553404473
  C         0.7067509264        9.4036884569       28.7655757915
  C        -1.7563123151        9.4244823620       27.7820905536
  C        -1.0710081091       11.8898399616       30.1436179996
  C        -1.1296862156       13.2810760293       30.2797023473
  H         7.1820034472       14.1073413264       22.3556396381
  H         6.0537402019       12.8920727972       23.0074373407
  C         5.5029848064       13.5152248920       21.0786625982
  S         2.0310146295        5.3983724374       19.6757363717
  N         2.2178028352        6.0162770705       18.1809329472
  C         2.9327274006        8.0860779225       17.1591584762
  H         3.7898125124       10.1208446608       16.6857287290
  H         1.1784128293        8.6560106516       28.1454015046
  H         0.2664449908        8.7465994495       29.5035097663
  C         1.6760484530       10.3025116868       29.5340115201
  H        -1.6689423044        8.7717898890       26.8545173578
  H        -2.0355144557        8.8153229406       28.6485942711
  C        -2.9523048955       10.2374544225       27.4618907559
  H        -1.3817727262       11.1933399975       30.8640188590
  C        -1.4801465483       14.0598335068       31.5271522245
  H         5.4397377399       14.4875324435       20.6146915410
  H         4.5239068480       13.2142616924       21.2494675584
  C         6.2660638002       12.5007505050       20.2258426035
  C         3.2010066616        7.4282973063       15.9493291385
  H         2.0128494042       11.1812805523       29.0057600669
  H         1.1759650671       10.7287185473       30.4010060943
  C         2.9256985056        9.5566586229       29.9977550240
  H        -2.7288706246       10.8039695396       26.5503727288
  H        -3.2691676127       11.0580448797       28.1205275841
  C        -4.2279750648        9.4044461633       27.2050444842
  C        -1.4706396345       15.5015916213       31.6453033054
  C        -1.6210628905       13.3284412295       32.7715815852
  H         6.9470397270       11.9295815935       20.9004355948
  H         5.5638942377       11.7449833451       19.9158672681
  C         7.0996842357       13.1479549288       19.0385910488
  H         3.1215664490        6.3766451318       15.9670071083
  C         3.4632065153        7.8576205763       14.6955201400
  H         3.4518722108        9.2528026775       29.1106945811
  H         2.6509147863        8.5935174284       30.5751411158
  C         3.8850766426       10.4780359929       30.7911311031
  H        -3.9381236792        8.7506963403       26.3471926755
  H        -4.3326788827        8.7222522957       28.0478180180
  C        -5.5387448360       10.2404430952       27.1945332713
  N        -1.2225015560       16.4568138443       30.5948126803
  C        -1.7824089768       16.1846754319       32.8228553221
  C        -1.9300629926       13.9434235319       34.0100214320
  H        -1.5118597312       12.2161713086       32.6735654713
  H         6.3626017735       13.8045428089       18.5535050159
  H         7.8827556435       13.8093989037       19.3065998172
  H         7.4206852312       12.3814036557       18.3537943607
  S         3.7057381341        9.4153206394       14.1853861341
  C         3.5125547579        6.7950079072       13.6275839306
  H         3.6918330652       11.5265868117       30.4834757058
  H         3.5885190481       10.4489313717       31.8419747156
  C         5.4012265484       10.2801626345       30.6350982789
  H        -5.4068558454       11.2683001359       26.7942455470
  H        -5.9110281425       10.2777327174       28.2664952428
  C        -6.6468210946        9.5888798852       26.4111060788
  S        -1.4511391300       17.9583067724       31.1818009339
  N        -1.6723613960       17.5596566509       32.7051022250
  C        -2.0499397158       15.4460664021       34.0310637504
  H        -1.9737945640       13.3611601088       34.9001489450
  C         4.0513109000        8.7018375716       12.5900005443
  N         3.9913853035        7.3657909830       12.5134029183
  O         3.3517926318        5.5713486928       13.7971737739
  H         5.9594506015       11.0659261541       31.0612047854
  H         5.7166086434       10.3127014264       29.5834046534
  C         5.7008020812        8.9433892777       31.2989863186
  H        -6.2847960093        8.9111473165       25.6822733595
  H        -7.0600546710        8.8605124043       27.0331374954
  C        -7.6327641605       10.6401171772       25.8645580224
  C        -2.2254509241       16.0235015411       35.2798024944
  S         4.4685984089        9.6125069204       11.1520614496
  C         4.1741707040        6.6985821419       11.2694692425
  H         6.1326909725        9.1188464783       32.2948033398
  H         4.8267434907        8.3908482219       31.4391531071
  C         6.6492686202        8.0840503477       30.4785431602
  H        -7.0720094899       11.2036501352       25.1450198133
  H        -7.8572937936       11.4529005806       26.5943424601
  C        -8.7926497809        9.8622332766       25.2954403722
  H        -1.8871315899       17.0567652312       35.3149324692
  C        -2.7745440662       15.7028617035       36.4874272026
  H         4.9789340708        7.2488172579       10.6993734727
  H         4.5892588617        5.7437547333       11.4563878037
  C         2.9049898298        6.4445927291       10.4536375854
  H         7.0734545441        7.4063943198       31.1910819196
  H         7.4009407226        8.6738990742       29.8831361268
  C         5.9202746791        7.1885927636       29.5261168818
  H        -9.1584735753       10.2889207265       24.3373358169
  H        -8.4371184799        8.8417436403       25.0826677300
  C        -9.9054665921        9.6555536779       26.4458584445
  S        -3.4921017396       14.2775365835       36.9828543391
  C        -2.9315939994       16.8301601575       37.4357213663
  H         2.9530631687        6.8671038309        9.4389363216
  H         2.7342292064        5.3727780384       10.2620009380
  H         1.9755948245        6.9168324610       10.8542969716
  H         6.6590284219        6.4659968963       29.1953382397
  H         5.5477352362        7.7623002738       28.6659093266
  H         5.0868736152        6.6783842607       29.9769267766
  H       -10.3739514597       10.6527898867       26.6457660884
  H        -9.5062027141        9.1508460965       27.3401836905
  H       -10.7063294725        8.9994345200       26.0327585435
  C        -3.9131893104       15.0919456364       38.5080591001
  N        -3.5951734227       16.3703244969       38.5330371495
  O        -2.6390013526       18.0084186898       37.1632396510
  S        -4.4612753331       14.2254280638       39.9614025716
  C        -3.7816525979       17.1488839490       39.7566491216
  H        -3.8127460052       18.1986069751       39.3877630300
  H        -4.7422679290       17.1302387509       40.2982651805
  C        -2.5010882018       16.8533002831       40.5660140474
  H        -1.6957991162       16.7002861522       39.8724767941
  H        -2.1500702698       17.7267452529       41.0812815353
  H        -2.6684042866       16.0339851409       41.1628183546
