352
i=
  H         4.3364416125        1.1647284290       12.2280900816
  C         3.8258632737        2.1463251312       12.2125742058
  H         4.5042475839        2.9886633098       12.1847155270
  C         3.0124185493        2.1624239753       10.8723438143
  C         2.9398506957        2.1927556203       13.4148467125
  C         3.8034824367        2.6141285217        9.6974863450
  H         2.1737282771        2.8664340249       11.0810709297
  H         2.5212237573        1.2528319628       10.6821728757
  H         3.4720380610        2.4579134826       14.3086772812
  H         2.2720658112        1.3316130731       13.3998759825
  H         2.3206677939        3.0725285584       13.3216129215
  C         4.4939628256        1.4527901251        9.0475148569
  H         3.1038769557        3.1400846804        9.1277334949
  H         4.4759472596        3.5332891975        9.9197155340
  C         5.5537061183        1.7362125172        7.9871081483
  H         3.7353187991        0.8925431774        8.4457789576
  H         4.8834254869        0.7088040287        9.7342373395
  C         6.7070710114        2.7209276645        8.3010104935
  H         5.0224340131        2.1256922490        7.1361598781
  H         5.9875922610        0.8223509892        7.5637883271
  C         7.9680926392        2.1327194792        8.8494074376
  H         6.8673252604        3.3588728356        7.4105487310
  H         6.4355259870        3.4035565901        9.1202316141
  C         9.1170901887        3.1322888038        9.1637165811
  H         8.3071529665        1.4010873851        8.1720267165
  H         7.8404538585        1.5424366331        9.6866792845
  C         8.6982304579        4.4647789926        9.8378253839
  C         9.4881962482        3.8917827592        7.9110888397
  C        10.4215465757        2.5271847269        9.7929551927
  C         8.8809901349        5.5872062970        9.0358910654
  C         8.2121108043        4.7909734587       11.1149329982
  C         9.4254656155        5.2811259650        7.8076102611
  C        10.0142726028        3.3336505447        6.7550039427
  H        10.2391657245        2.0063356268       10.6781632642
  H        10.7769845097        1.7508877406        9.1056093663
  C        11.5085722753        3.5322333024       10.0273567185
  S         8.4672377819        7.0180755772        9.8595772191
  C         7.9280577214        6.1154757669       11.2178832283
  H         8.1686722871        4.0407687750       11.8322715439
  C         9.8496905751        5.9473653454        6.6540443467
  H        10.2290549295        2.2571241232        6.8366171869
  C        10.3817730476        3.9808404818        5.5849291436
  H        11.2117947230        4.4556251516       10.4628089810
  H        11.9249910162        3.7807251037        9.1086236219
  C        12.6683239114        3.0458027439       10.8739977747
  C         7.3977364858        6.7698026026       12.4805243688
  C        10.3670966197        5.3168323543        5.5056512179
  H         9.6960695764        7.0018549401        6.6868685134
  C        10.7502106656        3.5411101846        4.3119680489
  H        13.5685081428        3.5780719387       10.6368497901
  H        12.9121265534        1.9406499381       10.7049065221
  C        12.4457764336        3.3889315498       12.3255859639
  C         7.3822912037        8.1985431875       12.7097442733
  C         7.0366066290        5.9377008289       13.6318823506
  C        10.8378040517        6.0122971023        4.2540270613
  C        11.0003219709        4.6195570495        3.5366978221
  S        11.0455168165        2.0429461510        3.5157588484
  H        12.5288043970        4.4270847978       12.4049600874
  H        11.3629988633        3.2038785233       12.3702046926
  C        13.3079614465        2.6276886295       13.3061364882
  N         7.6113529743        9.1851937693       11.7526545761
  C         7.1878535916        8.7721150593       13.9649834962
  C         6.9320667787        6.4741192410       14.8945885106
  H         6.8615691320        4.8642876053       13.4949253602
  C        12.2786915647        6.6077974929        4.4851956034
  C         9.8320980929        6.9783563140        3.6796361079
  C        11.3361504083        4.2857621934        2.2727876691
  C        11.4475743631        2.9139945325        2.0780860090
  H        14.1843449586        3.2308065792       13.5872452277
  H        13.4923288409        1.6419143900       12.8967531519
  C        12.5797844826        2.4059131630       14.6569722909
  S         7.5952232562       10.6169890714       12.4550927614
  N         7.3329535078       10.1470047217       14.0511199098
  C         6.9902953331        7.9516345659       15.1279082665
  H         6.7149331839        5.8289039313       15.6795128566
  H        12.2861210558        7.5166882053        4.8835648648
  H        12.6663896407        6.7902625333        3.4570763101
  C        13.3407240261        5.8618928141        5.2485993790
  H         9.7334484483        7.7640681449        4.4222062364
  H        10.3624792502        7.3230717464        2.7783415826
  C         8.5929423580        6.2450461623        3.2676408087
  H        11.3830693652        5.0705386462        1.4858840309
  C        11.7267906580        2.1597458876        0.8357129613
  H        11.9910250314        3.3315648807       14.8240179894
  H        11.7671872385        1.6676707734       14.4246412844
  C        13.4922558310        2.1626319893       15.8174041118
  C         6.8561975895        8.5502069077       16.4021910632
  H        12.8224595514        5.4966217936        6.1650377053
  H        13.6010875438        5.0017538321        4.5874149627
  C        14.4492055246        6.7258558753        5.6968785490
  H         8.1526375459        5.6792866472        4.0601820624
  H         8.7903235051        5.4975917830        2.4731841012
  C         7.5591195030        7.3004862012        2.8288999374
  C        11.7844724017        0.7692669539        0.6906972225
  C        11.8220505978        2.9482036815       -0.3931107206
  H        14.3490497701        2.8702966869       15.6944122217
  H        13.8665431720        1.0859137329       15.6870180483
  C        12.7640878388        2.3750162226       17.0852971368
  H         7.0826684713        9.5856382693       16.4148643646
  C         6.5544023745        8.0251531668       17.6367810194
  H        13.9369288014        7.5577579615        6.1744944934
  H        15.0047550536        7.1159419687        4.8517792307
  C        15.5236262538        6.0150561866        6.4902674776
  H         7.2616975878        7.9393900164        3.6501756556
  H         7.8335510770        8.0554216128        2.1106455047
  C         6.2765842863        6.6038807570        2.2720154331
  N        11.5721073086       -0.0774610868        1.6971845907
  C        12.1148542786        0.1779218759       -0.4763413166
  C        12.0446489097        2.3117385410       -1.5644504694
  H        11.7957654935        4.0109921618       -0.4174127620
  H        12.4343467883        3.3578251366       17.2467503401
  H        13.2984878807        1.9708463179       17.9471485749
  H        11.9090232579        1.7013606771       17.1638218976
  S         6.0686580722        6.3845513040       18.0517473182
  C         6.5176329783        8.9718101211       18.7999342731
  H        15.3450880579        6.0691373267        7.5276062046
  H        15.2091633985        4.9574287116        6.2301692366
  C        16.9468612101        6.2379701048        6.0303046435
  H         5.8379007639        6.0312859838        3.0954573391
  H         6.5949985595        5.9070973539        1.4947960478
  C         5.3020294489        7.6408225441        1.8245536844
  S        11.5861095040       -1.6214485386        1.0441684430
  N        12.1895042078       -1.1944665886       -0.3745514626
  C        12.1891280804        0.8483070947       -1.6618015096
  H        12.1764210060        2.9720236590       -2.3884628882
  C         5.8360260616        6.9874603572       19.6914308450
  N         6.0063330905        8.3125386487       19.8281720373
  O         6.7103283176       10.1760413098       18.7386224782
  H        17.2754733156        5.5628034375        5.2024998874
  H        17.0265921336        7.2730359758        5.6236214700
  C        17.9925560623        6.0443197096        7.1023589915
  H         5.8238560656        8.2722122198        1.1159667165
  H         4.6463232589        7.1091667976        1.2124451639
  C         4.4365730444        8.4490614438        2.8260668666
  C        12.4857289694        0.0788925067       -2.7860038861
  S         5.5048105222        6.1615956827       21.1259151316
  C         5.8532579900        9.0743284210       21.0889579783
  H        17.9047057486        6.9739494905        7.7237291103
  H        17.7466125038        5.1507702842        7.6579007318
  C        19.4549479276        6.0582758329        6.5692718033
  H         5.0449959212        9.2046363604        3.2531664947
  H         4.1506202450        7.7133808240        3.6078020185
  C         3.1636766337        9.0679851797        2.2754984945
  H        12.1134923085       -0.9095411717       -2.8817069892
  C        13.1271228420        0.4192891691       -3.9628214034
  H         5.0806607766        8.7112605079       21.7518586026
  H         5.6344038414       10.1867359002       21.0396778504
  C         7.0930545426        8.9641998320       21.8860921860
  H        20.2040227858        6.5549941126        7.1955333058
  H        19.4576016407        6.7102953156        5.8148165873
  C        19.9058619893        4.7791911176        5.8773890563
  H         2.4831384622        8.2793373803        1.9036873016
  H         2.6399230864        9.5960176147        3.0578278182
  C         3.2751771102       10.0060473195        1.0636868200
  S        13.6606502762        1.9881091214       -4.4905832551
  C        13.1889589219       -0.6867027092       -4.9629483802
  H         6.9517230589        8.7747309453       23.0076765881
  H         7.6090311568        9.8702753644       21.7662477126
  H         7.7416061734        8.1615428042       21.5381155885
  H        20.3452248529        4.0191313365        6.5802973550
  H        19.0031219465        4.2960936138        5.4038827740
  H        20.6518247020        4.9500566132        5.2016905161
  H         4.0201880050       10.7960386969        1.1673139080
  H         3.5073855465        9.3461366084        0.1627686663
  H         2.2761954192       10.4355399844        0.9841804649
  C        14.1354557241        1.1742930528       -5.9744033029
  N        13.8336615075       -0.1853367172       -6.0579568276
  O        12.6647089040       -1.7979994726       -4.8362674586
  S        15.1218256612        1.9083728907       -7.2465293374
  C        13.9506356343       -1.0788393187       -7.2374197195
  H        14.2343414460       -1.9717961536       -6.8068590012
  H        14.8113929685       -0.7211083108       -7.8058672087
  C        12.6005186528       -1.1155044808       -7.9995593183
  H        11.7710967129       -1.2363277360       -7.3751894357
  H        12.5220098377       -2.0518638096       -8.6424543979
  H        12.3521365647       -0.2861815941       -8.7097148463
  H        -2.9762571404       13.2237287897       16.4774775655
  C        -2.3262169569       14.0170412097       16.4354598543
  H        -1.3267794486       13.6392833012       16.4001346617
  C        -2.4611509044       14.9378466610       17.6364496433
  C        -2.5170112625       14.6820830468       15.0562291876
  C        -2.7446802260       14.1584238276       18.9647698793
  H        -1.5849885526       15.5055419059       17.7431205154
  H        -3.2448123321       15.6592578653       17.4310743659
  H        -3.1577965198       14.0947213593       14.4824415726
  H        -2.8138818311       15.7566822328       15.1350809181
  H        -1.5754938246       14.5790177547       14.5475911575
  C        -1.5743546511       13.9433611550       19.9537337022
  H        -3.1041951370       13.1590511438       18.9288608817
  H        -3.5068482641       14.6205336322       19.4853034768
  C        -2.1382907876       13.7212367389       21.3447687509
  H        -1.1258852378       13.0563993002       19.5526980510
  H        -0.9593663602       14.8210236833       19.9952543303
  C        -1.2010969590       13.0340533588       22.3327025611
  H        -2.9543108257       13.0143106303       21.2639459100
  H        -2.4623929226       14.6931351610       21.8361379175
  C         0.0348074987       13.9533695099       22.5343091928
  H        -1.6914123517       12.9599531755       23.3279571554
  H        -1.1339752653       11.9888585043       21.9768101711
  C         1.2333811232       13.2527520077       23.2077132854
  H         0.4574894343       14.4413792254       21.6195653493
  H        -0.2566982772       14.8380321607       23.0952521461
  C         1.5784203291       11.8951384151       22.5576076853
  C         0.7979544783       12.5710512925       24.5009713404
  C         2.3915014170       14.1996679171       23.5287480472
  C         1.2243298591       10.8402631603       23.3550013296
  C         2.1179346249       11.4786022768       21.3566279649
  C         0.6105450092       11.2311319381       24.5156809511
  C         0.4580861618       13.2202532039       25.6562832959
  H         2.5925425681       14.8868145947       22.7077420964
  H         2.1803992873       14.8158976518       24.3506244474
  C         3.6576180617       13.4240774882       24.0279506026
  S         1.5909890735        9.3295141403       22.6833189999
  C         2.1133618939       10.1570371778       21.2651588389
  H         2.4099554995       12.2446475293       20.7315546619
  C         0.3245715392       10.6357370593       25.6988339497
  H         0.5676349591       14.2740184352       25.7128592135
  C         0.0690490245       12.5732717733       26.8244958800
  H         3.8661050410       12.5893790813       23.4771658359
  H         3.4015590540       13.0062430962       25.0238632572
  C         4.9082647151       14.2679629273       24.2765619165
  C         2.4712583131        9.3753481337       20.0322963226
  C        -0.0423773955       11.2323730824       26.8636907873
  H         0.2979120682        9.6224578456       25.7602514931
  C        -0.3235439679       12.9903950550       28.0591391268
  H         5.5293769996       13.6040124820       24.8630088728
  H         4.6900085444       15.1261015775       24.8603856728
  C         5.6270240288       14.6565709175       22.9737508108
  C         2.4465765183        7.9794013591       19.8698096169
  C         2.9030888264       10.1060869816       18.8160988988
  C        -0.4850042353       10.5662040063       28.0948890843
  C        -0.6368086711       11.9393585903       28.8868240229
  S        -0.5760074596       14.5033981593       28.7320752592
  H         6.4997712723       15.2444141424       23.3907409449
  H         5.0665633542       15.4400745203       22.4497106119
  C         6.1625882964       13.4761566222       22.2013190547
  N         2.0011281740        7.0634804708       20.8727097734
  C         2.8019499128        7.3503641881       18.6519824874
  C         3.2596663686        9.5265334155       17.6307935962
  H         3.1103134131       11.1320515543       18.9687156738
  C         0.6402517559        9.5508685388       28.5743423025
  C        -1.7733685045        9.6713564035       27.9892115756
  C        -1.0105953803       12.3851610344       30.1603962553
  C        -1.0961733805       13.7401199773       30.1591940990
  H         7.1908979606       13.7330277392       22.0871875981
  H         6.1524898402       12.6041421078       22.8156905055
  C         5.4442575523       13.3023133339       20.8530641733
  S         1.9142082772        5.6341717209       20.1024484685
  N         2.6279923819        6.0061583967       18.7136372552
  C         3.1801754365        8.0356019566       17.4523966961
  H         3.6604824845       10.0708463294       16.8202001052
  H         0.8254683377        8.8970485051       27.7107112626
  H         0.0828853965        8.9287945906       29.3079964019
  C         1.9153689925       10.1943874480       29.1550776400
  H        -1.4598960249        8.7911805995       27.3744125579
  H        -2.1155171673        9.3082430518       28.8973610564
  C        -2.8889970917       10.5477073290       27.3638041023
  H        -1.2807041322       11.5341544583       30.8848552870
  C        -1.4662890002       14.5271719738       31.3478141316
  H         4.4612085797       13.5361599707       20.9816505977
  H         5.5657027121       12.2126013790       20.5900144255
  C         6.0911837666       14.0896190329       19.7722332272
  C         3.3843353221        7.2958561961       16.2734772955
  H         2.3432445809       10.9711558192       28.5639227245
  H         1.6173488110       10.6514460655       30.0713294060
  C         3.0442402079        9.2715478067       29.5238065300
  H        -2.5525831601       10.9161134691       26.3887280585
  H        -3.1289676766       11.3737693591       27.9924377010
  C        -4.1665538421        9.7943758021       27.0568548653
  C        -1.4008201592       15.9395175028       31.4818493039
  C        -1.6025218632       13.7851448094       32.6021565313
  H         5.5316060982       13.8106149478       18.9473540800
  H         5.8969232029       15.1324691229       20.0701985914
  C         7.5297342056       13.9129541375       19.4634155283
  H         3.3696925724        6.2251715110       16.4152148716
  C         3.6191153298        7.6216392358       14.9624549944
  H         2.8465762496        8.3870764671       28.8888072001
  H         2.9499899372        9.0194567790       30.5570279019
  C         4.4052872688        9.8249642999       29.2916992598
  H        -3.9513013285        9.0132185903       26.3653732632
  H        -4.5790401791        9.3253509011       27.9291455703
  C        -5.2657102436       10.6947513886       26.4945579933
  N        -1.2550333927       16.8590384786       30.4021749824
  C        -1.7217145070       16.6064163282       32.6116494071
  C        -1.8034624013       14.3884954065       33.8262763836
  H        -1.4956041052       12.7629413412       32.6378832008
  H         7.7410560775       14.7177964420       18.6807034064
  H         8.1191185429       14.2069576812       20.3076013429
  H         7.7400483734       12.9406385798       19.0110202508
  S         3.8314958925        9.1595913396       14.1820476214
  C         3.5331148848        6.4664065229       13.9799578758
  H         4.4242121712       10.5889484067       28.5340762054
  H         4.4944970608       10.3942399098       30.2236594082
  C         5.4294364407        8.7321989010       29.1885312976
  H        -4.7591542383       11.6473897492       26.2832164808
  H        -5.9609699845       10.8998615329       27.2572835499
  C        -5.8188613585       10.2418723592       25.1857240400
  S        -1.3921988223       18.3950901359       30.9563957228
  N        -1.7622729252       18.0216945279       32.4689539999
  C        -1.9033354917       15.8745032138       33.8495315234
  H        -1.8928582155       13.7292761774       34.7461698164
  C         3.8177288954        8.2137819392       12.6652858291
  N         3.6758464060        6.8742914198       12.7254295033
  O         3.4678970887        5.2920266627       14.3390683339
  H         6.3167246497        9.1883732411       28.7039074537
  H         5.1332203725        7.8982567864       28.5366143068
  C         5.8130347708        8.0232396837       30.5292488653
  H        -5.3055474035       10.6411330352       24.3481548361
  H        -5.8259412454        9.1559217868       25.0238923920
  C        -7.2569238502       10.8516613845       24.9900253060
  C        -2.2748351412       16.6985187105       34.8814406034
  S         4.1146706979        9.0749353096       11.1283483888
  C         3.7388967386        5.9518107919       11.6324912692
  H         6.7553081767        8.3864812663       31.0116730441
  H         4.9322063291        8.1776780857       31.1758175478
  C         5.8928239095        6.5260727104       30.4667399899
  H        -7.4238182631       10.7860830308       23.8894920105
  H        -7.2588822968       11.8861118485       25.2794316373
  C        -8.3334234940       10.0896571267       25.7615202647
  H        -2.3446213583       17.7350002110       34.7020077651
  C        -2.8058317948       16.4353707551       36.1584466938
  H         4.2983257919        6.2457743582       10.7568348471
  H         4.2125195932        5.0424930885       11.9528804602
  C         2.2790183392        5.5570817400       11.3287902671
  H         6.8040127429        6.2035488503       29.9524329883
  H         5.0069839822        6.1797084888       29.9887038161
  C         5.9465382005        6.0316812562       31.8550778418
  H        -8.5483719107        9.1248972607       25.2761024742
  H        -7.9978396620        9.9383446013       26.7533520573
  C        -9.6508075663       10.8370952907       25.9031012434
  S        -3.1792073006       14.8642942151       36.7563723584
  C        -3.1837894283       17.5841541088       37.1085499422
  H         2.1818489816        4.9553884633       10.4357244958
  H         1.7298471292        5.1312002551       12.1272536651
  H         1.7547531379        6.4996186034       11.1064834135
  H         6.6606078321        5.1760098607       31.9175907161
  H         5.0601081393        5.4663945432       32.0696606420
  H         6.1363176928        6.7975301575       32.5589191005
  H       -10.1382061455       10.9366139703       24.9380960332
  H        -9.4997412591       11.8154578990       26.3531574040
  H       -10.2946289951       10.2081251801       26.5060138784
  C        -3.9108147770       15.6654436624       38.1098184177
  N        -3.7680456797       17.0143675026       38.1405963215
  O        -2.8529332321       18.7559672756       36.9345063371
  S        -4.6668058910       14.8477131338       39.4413781433
  C        -4.0038126987       17.7445027602       39.4067990250
  H        -4.2776421075       18.7450391133       39.0696179076
  H        -4.9192178732       17.4297189788       39.8895913080
  C        -2.7708465094       17.6336602254       40.2596069589
  H        -1.9113614523       17.8239163289       39.5897606671
  H        -2.8643424839       18.2667073883       41.2275004155
  H        -2.8054924269       16.6088660660       40.6605329167
