352
i=
  H         4.3348027520        1.2590103722       12.0882481261
  C         3.6744753600        2.1429036689       12.1162342047
  H         4.3017359885        3.0457225924       12.0972930818
  C         2.8042410581        2.0830717673       10.8459790096
  C         2.8516338206        2.1461634030       13.4377365728
  C         3.5876935316        2.3618381168        9.6306814696
  H         1.8642843054        2.7279623486       10.9194536644
  H         2.3501978194        1.1608772247       10.7585114591
  H         2.1465904985        2.9634474077       13.3805621057
  H         3.4887850756        2.3193977796       14.2937282071
  H         2.2561011636        1.2864341414       13.6116933815
  C         4.5531979222        1.2151050235        9.3197770882
  H         2.8717410940        2.4964731281        8.8579903352
  H         4.1879333692        3.3416325109        9.7277288168
  C         5.4171495708        1.4272531506        8.0821666157
  H         3.8853844084        0.4081166232        9.1028891626
  H         5.2674232228        0.8227424690       10.0648550039
  C         6.6149484222        2.3252314786        8.4317580149
  H         4.7763351262        1.8636624635        7.2772552643
  H         5.8835752681        0.5223395664        7.6985965761
  C         7.8509186576        1.6258366862        9.0267626266
  H         6.9472387035        2.8371725839        7.5117298233
  H         6.2230841330        3.1153919086        9.0278868190
  C         9.0303508491        2.5379174862        9.3410679305
  H         8.1332686463        0.8332097072        8.3653808454
  H         7.6159242139        1.1066876202        9.9406057202
  C         8.6897063726        3.9316798426       10.0010955928
  C         9.4739324671        3.1934844377        8.0800397315
  C        10.3198345919        1.8235325986       10.0254317711
  C         8.9394773405        5.0130315587        9.1624924436
  C         8.1813407146        4.3959539710       11.2263694117
  C         9.4755467406        4.5632817830        7.9678345225
  C        10.0434377010        2.6864089454        6.9103179520
  H         9.9758974264        1.1379183013       10.8279325925
  H        10.9056731937        1.3021147569        9.2563942363
  C        11.2035379831        2.8635948430       10.7426841351
  S         8.6511771757        6.5446390046        9.7913759528
  C         8.0754688287        5.7412694651       11.2293049802
  H         7.9973853372        3.7233755522       11.9571758875
  C         9.9235341616        5.2898241736        6.8754494721
  H        10.1123680789        1.6527316497        6.8318982040
  C        10.4379046576        3.3814674720        5.7689351761
  H        10.8506765410        3.3687152555       11.6152740568
  H        11.4464348805        3.5735103194        9.9452620694
  C        12.5952934348        2.3885214491       11.1500291412
  C         7.6308383385        6.4991434800       12.4298951655
  C        10.4095809522        4.7245866430        5.7237663080
  H        10.1017900377        6.3448983288        7.0010635199
  C        10.9325824182        2.9621949232        4.5335780824
  H        13.4346169983        2.7910300977       10.5515677361
  H        12.5844076431        1.2975919337       11.0974161128
  C        12.8932389855        2.4907602342       12.6398168402
  C         7.6148492048        7.8888834749       12.6582664507
  C         7.2435582340        5.6527410107       13.5679805691
  C        10.9443957964        5.4024745015        4.4947625823
  C        11.1890462456        4.0798035097        3.7427602739
  S        11.1422723670        1.4945244612        3.5853812081
  H        13.9029571895        2.1659815352       12.9577278401
  H        12.9895050431        3.5234289241       12.8755799421
  C        11.9432711367        1.6201192323       13.4249307350
  N         8.0791344026        8.8237517687       11.7631481180
  C         7.3621185542        8.4545557705       13.8692859780
  C         6.9531979734        6.2243498886       14.8347117627
  H         7.1017749103        4.5629233720       13.5366202585
  C        12.1877884625        6.1777161560        4.8941247150
  C         9.9730887616        6.2716802200        3.6738344089
  C        11.6646598174        3.7424674007        2.4193714265
  C        11.7143732815        2.4160389591        2.2294600371
  H        12.3839534949        0.6008596190       13.3472287458
  H        10.9511489309        1.6283467012       13.0049801916
  C        11.9468128085        1.9489737290       14.9240640036
  S         7.9516894380       10.2689610627       12.4463345902
  N         7.4145640767        9.8581976465       13.8651293841
  C         7.0399749862        7.6925566873       15.0034347778
  H         6.6768433935        5.4937184752       15.5670575479
  H        11.8792135509        6.9204897590        5.6826982242
  H        12.4921643999        6.7543745743        4.0598979183
  C        13.3278525836        5.2301691343        5.4420504955
  H         9.6512579823        7.1084728533        4.2680118914
  H        10.5946582722        6.6829392175        2.7959259376
  C         8.7650376681        5.6053543942        3.0721665608
  H        11.7004934321        4.5271604733        1.6335506148
  C        12.0102771464        1.6982596136        0.9455328406
  H        11.5993996679        2.9875992129       15.0444810664
  H        11.1996656971        1.3037189773       15.3150149126
  C        13.3714663576        1.7828479918       15.5768788174
  C         6.7990550999        8.3708631516       16.2323397237
  H        13.0085189918        4.7032879807        6.3405863855
  H        13.4341069926        4.4573942456        4.7322990073
  C        14.5634082891        6.0943440835        5.8320562123
  H         8.3324002548        4.8455693132        3.7687784557
  H         9.1373003327        4.9759355569        2.1858174425
  C         7.7110087143        6.5945730453        2.7411081463
  C        11.9953819105        0.2904289058        0.7478262805
  C        12.0750880727        2.4620212665       -0.3273908878
  H        14.0751542325        2.3577106818       15.0313246203
  H        13.6899678948        0.7204581405       15.5124555456
  C        13.3879279568        2.1606687791       17.0488142008
  H         7.0794829018        9.3901112905       16.1883540370
  C         6.4261469512        7.9668855283       17.4879228626
  H        14.3485792739        6.9205357713        6.5316070161
  H        15.0015708161        6.5429560741        4.9658794449
  C        15.7463500043        5.2384085102        6.3874956810
  H         7.4029293651        7.1355911000        3.5642371397
  H         8.1440634613        7.2837431292        2.0325847416
  C         6.5195891188        5.9767990679        2.0147801678
  N        11.7447861780       -0.6516344211        1.7397753480
  C        12.3489973954       -0.3189919785       -0.4595046027
  C        12.3112540420        1.8422429478       -1.5524240337
  H        12.1072688541        3.5123268151       -0.2819615978
  H        13.1922086167        1.3483878110       17.7127696764
  H        12.5752474974        2.8663765978       17.1497757772
  H        14.3896854348        2.6292534942       17.2731574501
  S         6.0129323192        6.2910419732       17.9089930903
  C         6.4868581524        8.9908752291       18.5544988754
  H        15.4328442834        4.7243393061        7.3048710141
  H        16.1066943160        4.4288288084        5.7552301735
  C        16.9196764602        6.1695695343        6.6068666468
  H         6.3632275600        5.0184720136        2.3277382235
  H         6.6873031308        5.8613509943        0.9559413221
  C         5.2285161383        6.7978072522        2.1650133617
  S        12.0840470388       -2.1464021546        1.2035054888
  N        12.4118305704       -1.7055773065       -0.3264931767
  C        12.4985203033        0.3912418336       -1.6485888465
  H        12.3711306334        2.4849970693       -2.3985657226
  C         5.9499804436        6.9899729208       19.5428226150
  N         6.1434457274        8.3634005208       19.6761291365
  O         6.7815107990       10.1728379981       18.4321696056
  H        17.3506603995        6.3521814121        5.6116656001
  H        16.6478211155        7.0867948715        7.0788490081
  C        17.9456842418        5.4647775903        7.5458828772
  H         4.3414269117        6.1847534360        1.9445229250
  H         5.1203051055        7.2086722492        3.1798387542
  C         5.2930021247        8.0346941154        1.1831396450
  C        12.7832651628       -0.3948755157       -2.7973179555
  S         5.1699549796        6.2070968270       20.8791458854
  C         6.1342759205        9.1848261999       20.9209602020
  H        17.7037167451        5.6679549546        8.5829300889
  H        18.1263999131        4.3647344307        7.5446755984
  C        19.2702788137        6.2008384252        7.2671707529
  H         5.3238236063        7.7289688414        0.1913188862
  H         6.2148731655        8.5840100766        1.3364939815
  C         4.0321814631        8.9923561484        1.2197728820
  H        12.5757913905       -1.4314881225       -2.7696741766
  C        13.2870428979       -0.0834945176       -4.0199176133
  H         5.4476518080        8.6849201478       21.5900503452
  H         5.7145962106       10.1143683749       20.7719651864
  C         7.5110077420        9.3636611790       21.4724226801
  H        19.8950800802        6.0846476746        8.1828055354
  H        19.0747532674        7.1952214612        6.8942611537
  C        20.0014671408        5.4145577304        6.1308987020
  H         4.1972206323        9.8313728648        0.5383214277
  H         3.1913230515        8.4384094229        0.8690633854
  C         3.8313512974        9.6427832028        2.5303648934
  S        14.0194111824        1.3267465730       -4.5679419780
  C        13.5496234527       -1.1457353770       -4.9857013230
  H         7.8988928735        8.4460166714       21.9060908988
  H         7.3257238666       10.0404939452       22.2871579983
  H         8.2348406679        9.7789678877       20.7131631675
  H        20.2597006428        4.3689088980        6.2726668486
  H        19.5514016567        5.5415811270        5.1610772676
  H        21.0043893358        5.7678363074        6.0139769130
  H         3.3728974619        8.9721161862        3.2419552252
  H         4.7230796501       10.0381360641        3.0087137486
  H         3.0978979478       10.4410319543        2.5015579050
  C        14.4795982287        0.5665882118       -6.0461104978
  N        14.0976333891       -0.7174438752       -6.0970668014
  O        13.1450378580       -2.2826402965       -4.7974228766
  S        14.8905589518        1.4223934947       -7.5427112412
  C        13.9651245612       -1.3599942524       -7.3961033981
  H        14.2388754166       -2.4341447813       -7.2649290383
  H        14.8133216428       -1.0097038034       -7.9389312811
  C        12.7323281830       -0.9583692121       -8.1535384131
  H        11.7978452502       -1.3661594860       -7.6135330042
  H        12.7793496125       -1.5082390167       -9.0809747673
  H        12.5784387066        0.1305827262       -8.3256199015
  H        -2.9474995350       14.9307227895       16.4130153711
  C        -2.9455970666       13.8561601435       16.5522237260
  H        -3.9654422995       13.5470381977       16.6791091884
  C        -1.9705989691       13.4965789513       17.7092991606
  C        -2.5421119479       13.3077136048       15.2048010879
  C        -2.5251912037       13.7820584650       19.0999477397
  H        -1.7872175421       12.4555561660       17.7728160075
  H        -1.0383952809       13.9538956688       17.4752229820
  H        -1.8260704506       14.0896331942       14.9071158369
  H        -1.9850187305       12.3360569128       15.1826910572
  H        -3.3596562296       13.3145305608       14.4942438067
  C        -1.8224264356       12.9046773076       20.0278124920
  H        -3.5983364077       13.6663531226       19.1535503921
  H        -2.2546820547       14.8762621102       19.2576018609
  C        -2.3287139079       13.2931654489       21.4473869812
  H        -2.0529864982       11.8632690976       19.8361002150
  H        -0.6930684610       12.9439388325       19.9893402840
  C        -1.4261450780       12.7119631006       22.5018372390
  H        -3.3285061833       12.9806848437       21.5756136005
  H        -2.4090763553       14.3565453938       21.6075115550
  C        -0.2135860299       13.6418340560       22.7890081417
  H        -2.0868875484       12.6483969140       23.3294195390
  H        -1.2474043725       11.7055642364       22.1803345943
  C         0.9723010099       12.9388593521       23.5242778269
  H         0.1893920228       14.0710335771       21.8351991343
  H        -0.6495972789       14.4387091335       23.4226445766
  C         1.2997886773       11.6074275127       22.8329484730
  C         0.5256861689       12.2897643031       24.7738922666
  C         2.1723591407       13.9868892909       23.6030774636
  C         1.0821495081       10.5011898720       23.6245402645
  C         1.8455578367       11.2632099352       21.5968266451
  C         0.5280819999       10.9222637880       24.8258223943
  C         0.0779882099       12.8308231032       25.9446280735
  H         2.2156437066       14.5994094188       22.7060214197
  H         1.9650196874       14.7039864394       24.4101228543
  C         3.5704269866       13.2673963755       23.9242200773
  S         1.5706555833        8.9955707127       22.8316189491
  C         1.8685473314        9.8945922984       21.4269992229
  H         2.2062863717       11.9940692601       20.9374470377
  C         0.1248851760       10.2989220476       25.9631384529
  H        -0.1313804342       13.8904388915       25.9201760335
  C        -0.2366781419       12.1994720688       27.0905093529
  H         3.7415117998       12.4224064436       23.2644791773
  H         3.5918657692       12.8423152708       24.9291311668
  C         4.7796614398       14.2358810123       23.9710461998
  C         2.3345711823        9.2177280307       20.1511062028
  C        -0.2560263630       10.8736081652       27.1727408255
  H         0.2753305058        9.2155344037       26.0060308837
  C        -0.6364797141       12.6028105191       28.3602017427
  H         5.5874134971       13.7885579371       24.5099867514
  H         4.4553806835       15.0832132836       24.6054605258
  C         5.2390276201       14.6335223093       22.5705012121
  C         2.3291620620        7.8103928178       19.8803709794
  C         2.6264953998       10.0463512968       18.9592505419
  C        -0.6837110037       10.2170295373       28.4123716177
  C        -0.7950260872       11.5054069596       29.1654139263
  S        -0.8689826408       14.1786129885       29.0843714105
  H         5.6755416176       15.6330780472       22.6303986001
  H         4.3668937812       14.6370108595       21.8832562234
  C         6.3268432138       13.6127592865       22.0056219480
  N         1.9086753035        6.8145258810       20.7849117011
  C         2.6604391040        7.3521317471       18.6424593877
  C         3.0159626980        9.5515322267       17.7107577469
  H         2.8207065788       11.1438380471       19.0354518247
  C         0.3672165797        9.2385103847       29.0583927311
  C        -2.0788243924        9.5850220742       28.3817061729
  C        -1.1411405013       11.9383303926       30.4888840382
  C        -1.2286537078       13.3198396703       30.5047498475
  H         7.3892654944       13.9234120568       22.0142354036
  H         6.2424055338       12.6787872155       22.5458674980
  C         6.1541492916       13.2999496851       20.5223219631
  S         1.8707358280        5.4211429821       20.0145731681
  N         2.5427264307        5.9570824076       18.6236968504
  C         2.9893717676        8.1105037810       17.5169831764
  H         3.1861735425       10.2295584287       16.8714591910
  H         0.3256874397        8.4161363299       28.2639282910
  H         0.0685304673        8.7437334732       30.0035014365
  C         1.7536250306        9.8333825459       29.0966031326
  H        -2.0559902809        8.7882636267       27.7017726444
  H        -2.2195119332        9.1554846927       29.3962801536
  C        -3.2985792144       10.4437217553       27.9254455205
  H        -1.4051910776       11.2082267432       31.1610550371
  C        -1.5586942336       14.1103754476       31.7600996632
  H         5.5248531052       14.0618963021       20.0447973259
  H         5.6113070224       12.3880039440       20.2323430975
  C         7.4854477838       13.3623585751       19.7848721645
  C         3.3528181324        7.3777268980       16.3062878401
  H         2.1371321277       10.2867229896       28.2011999206
  H         1.6262613196       10.7760952154       29.6799485164
  C         2.8677378953        8.9590761822       29.7768616993
  H        -3.0079598038       11.1547812759       27.1755829544
  H        -3.7067599114       11.0480124533       28.7528674087
  C        -4.4690020091        9.4903412327       27.5653994285
  C        -1.7382087603       15.5260228816       31.8307213315
  C        -1.8036736354       13.3641677915       33.0265707842
  H         8.0710687888       14.2457470016       20.0516318605
  H         8.1212701135       12.5363638963       20.0381447818
  C         7.2356852345       13.3244817475       18.2877677002
  H         3.2140114342        6.3346774667       16.4857349487
  C         3.5782942619        7.8122022241       15.0402107874
  H         3.0973646075        8.1265002253       29.1706971280
  H         2.4363785324        8.5689707843       30.6995407203
  C         4.0855338490        9.8149841255       30.1907673372
  H        -4.1030730021        8.7908585775       26.8238316365
  H        -4.8108190207        9.0006433817       28.4687166250
  C        -5.5869453968       10.3802762113       26.9762776994
  N        -1.4261312670       16.4032465890       30.8606578754
  C        -2.1955645445       16.0920505210       32.9510402047
  C        -2.1272614339       14.0361097539       34.1637225581
  H        -1.6930291087       12.3374537649       33.1397134424
  H         7.1706646865       14.3690713844       17.8274928539
  H         7.9711801722       12.6755843688       17.7510774724
  H         6.2828792754       12.8977660974       18.1253672739
  S         3.9623000107        9.4286397834       14.5022970694
  C         3.6978021299        6.8127347105       13.9749697230
  H         3.9931237962       10.7521694851       29.6195789464
  H         4.0595941879       10.0932767614       31.2582365914
  C         5.3898098528        9.1083981537       29.9590570786
  H        -5.2075777449       10.9504361105       26.1126719405
  H        -6.0167919134       11.0910934104       27.7125962165
  C        -6.8206887268        9.7222782352       26.2995132922
  S        -1.7437418858       17.8776816203       31.3625467802
  N        -2.2449017338       17.5017404197       32.8633517338
  C        -2.2985350051       15.4721212456       34.1902419710
  H        -2.0867724285       13.4631141373       35.1245573048
  C         4.1458350500        8.7597578366       12.9182925854
  N         4.0198450683        7.4114666603       12.7777712680
  O         3.5161981256        5.5858991518       14.1669666242
  H         6.1864327903        9.8255552299       30.2833775262
  H         5.4830342453        8.8923417927       28.9387775159
  C         5.6334844067        7.8039677431       30.7968658067
  H        -6.4133094424        8.9165763033       25.7237230025
  H        -7.4630810738        9.3959846358       27.1187838735
  C        -7.5270388484       10.6748295777       25.2707742110
  C        -2.5246909731       16.2625540337       35.2955861670
  S         4.6967327388        9.6507249913       11.4786335574
  C         3.9020866816        6.6263113311       11.5537840388
  H         6.3374679789        8.1494710460       31.5690849249
  H         4.7363488025        7.4570807766       31.3253974646
  C         6.2098235519        6.6775178681       29.9217733296
  H        -6.9496446042       10.7289747091       24.3384521909
  H        -7.5620089395       11.6686429232       25.5962027378
  C        -8.8640570760       10.1585978253       24.7678984182
  H        -2.4591935714       17.3618483073       35.2782338296
  C        -3.0823320365       16.0116020892       36.5735937313
  H         4.5879025855        6.8982166480       10.8155217345
  H         4.1131600552        5.5934718507       11.6802729792
  C         2.5318165583        6.7150031830       10.9396640021
  H         6.8512918352        7.1441500784       29.2201922552
  H         5.4103619251        6.1536053069       29.4297764225
  C         6.9790948663        5.7451698220       30.8192425419
  H        -9.1822353672       10.7619285811       23.9673587759
  H        -8.6935769209        9.1020629673       24.3600269913
  C        -9.8629843695       10.0813674140       25.9278896201
  S        -3.5508402424       14.4644064306       37.1582071296
  C        -3.2559968026       17.2092015111       37.4388953408
  H         2.3304818102        7.6958634647       10.5067325232
  H         2.3667372230        6.1101206567        9.9769388268
  H         1.7358183956        6.4323372839       11.6697320464
  H         7.3836288373        4.8504051030       30.3716841858
  H         6.2791718317        5.4570502589       31.6332386172
  H         7.8866010982        6.2927186496       31.2238602490
  H       -10.7707311703       10.4000791441       25.4535637606
  H        -9.7852082232       10.8573844477       26.6797747071
  H        -9.8693747036        9.1695199280       26.4351177130
  C        -3.7801763962       15.3455958503       38.6601869919
  N        -3.7231703147       16.7221147179       38.6008631446
  O        -3.0044945673       18.3796695487       37.1495342187
  S        -4.4137829956       14.6243122529       40.1049186354
  C        -3.8726552486       17.5692249153       39.7868368096
  H        -4.2611403425       18.5089737254       39.4136645173
  H        -4.6348048420       17.1675607930       40.4397037446
  C        -2.5813689451       17.7858982762       40.5100042428
  H        -2.6381570808       18.6304723115       41.2831714842
  H        -2.3549741609       16.8057837826       40.9830491960
  H        -1.8308897190       17.9499598173       39.7491758841
