352
i=
  H         4.5046112005        1.1602474516       12.2338801983
  C         3.9626891188        2.0783854493       12.2239481418
  H         4.8583449082        2.7070939131       12.2393276995
  C         3.0096517518        2.3230008024       11.1033660005
  C         3.1963662722        2.0639094657       13.5084343537
  C         3.8077709315        2.6809959366        9.7845686103
  H         2.3803108188        3.1557894587       11.4784484167
  H         2.2230786815        1.5476561083       10.9242487863
  H         2.2008817311        1.6704605878       13.2914502536
  H         3.1055041646        3.1014469915       13.6822753024
  H         3.7550550408        1.6764468903       14.3829180981
  C         4.6611912372        1.5257515684        9.2790327948
  H         3.1659435826        2.9796054670        9.0321178292
  H         4.4244150846        3.5412850560        9.9036968776
  C         5.3368740861        1.8395173794        7.9174404264
  H         3.8950825171        0.7652270321        9.0518666831
  H         5.3865238559        1.1747254985       10.0090559955
  C         6.5911257339        2.7271422106        8.2128794661
  H         4.6385421948        2.3531359207        7.3417306820
  H         5.6719486944        0.8639432922        7.4309064211
  C         7.8348484774        1.9466674509        8.7214811827
  H         6.8726573684        3.1907508893        7.2836485863
  H         6.3066368222        3.4821118864        8.8732407031
  C         9.0784636563        2.8767290650        8.9321424482
  H         8.1305925689        1.2722354519        7.9270450277
  H         7.6366502908        1.3563893674        9.6609129220
  C         8.6745125860        4.1758277745        9.6179367220
  C         9.6324463991        3.5854587507        7.7248746332
  C        10.2827175520        2.2437998570        9.6864710450
  C         8.9493803014        5.2725231430        8.8120850347
  C         8.1410526814        4.5369555242       10.8645381719
  C         9.5577219649        4.9231648290        7.6565930869
  C        10.2090165495        3.0065086681        6.6071925415
  H         9.9707481329        1.5928824020       10.5548891719
  H        10.6776678653        1.5200882315        8.9346569541
  C        11.3481635571        3.1990175199       10.1420369805
  S         8.6893480805        6.7912704268        9.5636571987
  C         8.0546049280        5.9102742926       10.9770623943
  H         7.9854250473        3.7436281867       11.5559280353
  C        10.0821470572        5.5513471589        6.5957775863
  H        10.2873307166        1.9105522047        6.6198766259
  C        10.6763154392        3.6015063079        5.5165069382
  H        10.7886707972        3.8697783480       10.7964012882
  H        11.8088411140        3.8365102670        9.4138761101
  C        12.5621113714        2.6514678810       10.9934928572
  C         7.6503302705        6.5890865648       12.2717828649
  C        10.5702790781        4.9583356475        5.3961922334
  H         9.8885431985        6.6294963346        6.6980981280
  C        11.1109250764        3.1839712431        4.2679245844
  H        13.2827514739        3.4226638094       10.8883052396
  H        12.9822430889        1.8465750155       10.4618794304
  C        12.2310008828        2.3954974552       12.5057474593
  C         7.6728772473        7.9943022335       12.5716065650
  C         7.3043590039        5.7452212503       13.4745134740
  C        11.0381096249        5.6136487339        4.1269560134
  C        11.3895430259        4.2549662743        3.4584457266
  S        11.3436674083        1.6726054136        3.4781644046
  H        11.5909157439        3.2102959359       12.7993217555
  H        11.7181401995        1.4635552737       12.6209744273
  C        13.4300113260        2.2287882737       13.4227781442
  N         7.9887385566        9.0393094020       11.6648189432
  C         7.4706297147        8.5213494491       13.8507027589
  C         7.0543702582        6.3142338418       14.7841451642
  H         7.2833976543        4.6881909561       13.3374436236
  C        12.2322046516        6.5933908205        4.2158802277
  C         9.8589631187        6.3117137395        3.3779983891
  C        11.9319130679        3.9039933696        2.1925761487
  C        11.7971155941        2.5820651671        2.0133891120
  H        13.8649726825        3.1839415223       13.6185855970
  H        14.2179589600        1.6888048157       12.8892493928
  C        13.1302857727        1.6238517806       14.8119864436
  S         8.0810201784       10.4256110519       12.4704364119
  N         7.7747917310        9.8557488532       13.9375191892
  C         7.0548497658        7.7841479220       14.9895433051
  H         6.7300870207        5.6688861815       15.5339011555
  H        12.0554995120        7.5103828685        4.7499087519
  H        12.6626394509        6.8402927145        3.2280768416
  C        13.3423867637        5.8824557440        4.9607103079
  H         9.4388587916        7.0399595029        4.0683329147
  H        10.2373582050        6.9513146415        2.6100717127
  C         8.7570952570        5.4416321064        2.7655439536
  H        12.1835674193        4.6289974712        1.5079455533
  C        11.9489406605        1.8377037626        0.7204713480
  H        12.8703152704        0.5946439836       14.6977032333
  H        14.0643887417        1.7637902271       15.3937905053
  C        11.9150668375        2.3576302699       15.5542857657
  C         6.8493097376        8.4333839433       16.2550082174
  H        13.0916902891        5.6683044247        5.9862034494
  H        13.4660065828        4.7818015703        4.6183593156
  C        14.6904548026        6.5835952931        5.0426451728
  H         8.4689793565        4.6668751602        3.4712477813
  H         9.1950424090        4.9324421286        1.8712909165
  C         7.6005015467        6.3837712463        2.2171147256
  C        11.9662848625        0.4152618627        0.5006293836
  C        12.0298911588        2.6270349949       -0.4968851027
  H        11.0570962197        1.9269025749       15.1746729966
  H        11.8901417759        3.4195051695       15.4197217946
  C        11.9099051846        2.0057788861       17.0039184124
  H         6.9152045143        9.5012153242       16.1101020529
  C         6.5229963503        8.0737050550       17.5265362689
  H        14.5260813801        7.4638974436        5.6994812896
  H        15.0195033306        6.8047038396        3.9874016329
  C        15.8016974873        5.5627624726        5.5728841814
  H         7.3906011945        7.2104113519        2.9477524899
  H         7.7304574741        6.8480091303        1.2907207809
  C         6.2755361135        5.5507316319        2.1068247155
  N        11.9420991505       -0.6035098159        1.5475209696
  C        12.1743033605       -0.1745723255       -0.7179861012
  C        12.2171498034        2.0205971767       -1.7818710517
  H        11.8713744191        3.7052609094       -0.5286529769
  H        12.3516134298        1.0140975035       17.1419022231
  H        10.9039493054        2.0033627301       17.4569137317
  H        12.5335988192        2.6730920097       17.6195162545
  S         6.3023058373        6.4718741375       18.0383204578
  C         6.4163135544        9.1255701447       18.6161258140
  H        15.3298997747        4.7879957438        6.1607810992
  H        16.3490208874        5.1404608614        4.7249335822
  C        16.8447565569        6.3252165993        6.4602487249
  H         6.0532809193        5.2121395697        3.1028640652
  H         6.4633194178        4.6301080634        1.5499457288
  C         5.1051304567        6.2719037574        1.5476779702
  S        12.0823831530       -2.0390042665        0.8235659945
  N        12.2658362156       -1.5459708684       -0.7096406156
  C        12.3648090733        0.5273154472       -1.9036258904
  H        12.2501764795        2.5912431555       -2.7042002525
  C         5.9686984748        7.1471152889       19.6026225517
  N         5.9669385480        8.5157040842       19.7023089807
  O         6.6526977737       10.3101807471       18.4996397887
  H        17.1487937279        7.2256756744        5.9514438073
  H        16.4155098944        6.8441021253        7.3716887503
  C        18.1201297337        5.5160509472        6.5701270389
  H         5.3910054800        6.7521599772        0.6442018892
  H         4.2582790722        5.6052691194        1.2774378968
  C         4.4037047862        7.3502597582        2.3515978715
  C        12.6547201875       -0.1388650786       -3.2040511654
  S         5.2415853958        6.2740513676       20.9324939943
  C         6.0195772500        9.1910158177       21.0141097201
  H        18.1758185530        5.0036071401        7.5999244236
  H        18.1371629948        4.7547646394        5.8365379527
  C        19.3545186885        6.3993538698        6.4837440197
  H         5.0385934775        7.5546624550        3.2141671109
  H         3.5396243559        6.9559632120        2.8666638337
  C         3.9242601771        8.5061650008        1.4975615214
  H        12.7078816183       -1.1791901142       -3.1153615765
  C        13.1100035365        0.2432256322       -4.4107669799
  H         5.3650335164        8.6561181323       21.7454752624
  H         5.6886216011       10.2451010542       21.0159153835
  C         7.4181009898        9.1414645486       21.6282479629
  H        20.2688848027        6.0569419900        6.9700229163
  H        19.1627104916        7.3582522422        6.9785278597
  C        19.7973247567        6.5972608949        5.0588177534
  H         4.4244853901        8.6823083869        0.5377847400
  H         2.8617985047        8.3299680171        1.2206956303
  C         4.0709047544        9.8143727100        2.3142487710
  S        13.5877468490        1.7840621463       -4.8966101313
  C        13.2902288697       -0.7790969431       -5.4989050794
  H         7.7020113481        8.0915065477       21.6544947257
  H         7.2851092538        9.3396564191       22.7006700450
  H         8.1850575883        9.6596411077       21.0680809585
  H        19.3227511821        5.8747213931        4.3641478411
  H        19.3675684259        7.5699044179        4.7844477258
  H        20.8773826016        6.4841398029        5.1286012751
  H         4.1271615260        9.6590884527        3.3901776984
  H         4.9893427941       10.3499258122        2.0789645850
  H         3.2405178161       10.5721960462        2.1605783562
  C        14.0985040373        1.1605449656       -6.4239848932
  N        13.9040525715       -0.1379168279       -6.5898709633
  O        13.0668185798       -1.9916772678       -5.4563717625
  S        14.7307497019        2.2302130305       -7.7108256077
  C        14.3048203168       -0.7370915324       -7.8665280772
  H        14.3153869258       -1.8840724481       -7.7430478928
  H        15.3070231029       -0.4324873875       -8.1270852444
  C        13.2648151793       -0.3847391021       -8.9523083613
  H        13.6578841828        0.5512700006       -9.4278958567
  H        12.3781189350       -0.0565205899       -8.4062910016
  H        12.9615977559       -1.2205687871       -9.6143989600
  H        -3.5126203622       14.7797705365       15.6524021397
  C        -2.8033482720       13.9420785004       15.8880230902
  H        -3.4967514991       13.0694089574       15.9309752137
  C        -2.1114932333       14.1523492866       17.2730960168
  C        -1.7934123579       13.7259953930       14.7678981798
  C        -2.8843979309       13.7742549697       18.5145413149
  H        -1.1806199404       13.5711418509       17.3178723667
  H        -1.8945417493       15.1995895872       17.3697644528
  H        -2.3362541548       13.4534673682       13.9258715183
  H        -1.3340316998       14.6633803880       14.5009522343
  H        -0.9766681603       13.0663208678       15.0512415188
  C        -1.9935762617       13.0761146993       19.5831590643
  H        -3.6379555142       13.0938311876       18.2797888334
  H        -3.4050596740       14.6239177861       18.9861838290
  C        -2.4889628192       13.3042240954       21.0470844450
  H        -1.9180635944       12.0228062396       19.3286539613
  H        -0.9962539028       13.5182062037       19.4016594963
  C        -1.4997798939       12.7705271569       22.1507298832
  H        -3.4533342651       12.9091807378       21.2657113711
  H        -2.6121962514       14.4051434158       21.2174561784
  C        -0.2220787492       13.6704158307       22.1200877010
  H        -1.8343134580       12.8847723603       23.1499478565
  H        -1.2976895276       11.7172637497       21.9158296783
  C         0.9086192358       12.9844677605       22.9403438206
  H         0.1595340328       13.9552645205       21.1164434837
  H        -0.4626313029       14.6303338411       22.5849126673
  C         1.2968521959       11.6777217185       22.3373743880
  C         0.5612570033       12.3622236813       24.2881323263
  C         1.9862585427       14.0375904745       23.0910759421
  C         1.1843440539       10.6479050831       23.1885124122
  C         1.7943619140       11.2249001986       21.1248963371
  C         0.6974677683       11.0104625603       24.4323631400
  C         0.0789997639       12.9520369056       25.5048648734
  H         2.0837112340       14.5387038785       22.1428275782
  H         1.5556899094       14.7477366327       23.7948697351
  C         3.2805899600       13.4154368022       23.7147424562
  S         1.6247722776        9.0887993431       22.5447564162
  C         1.9503575527        9.8845869851       21.0858365934
  H         1.8009126469       11.9876471961       20.2830723681
  C         0.3305453224       10.3529486849       25.5720165001
  H        -0.1402605279       14.0029473250       25.4789578931
  C        -0.1588775110       12.3279613168       26.6698000233
  H         3.5229071216       12.4294713876       23.1793953212
  H         3.1095972001       13.2113364705       24.7747877949
  C         4.6939872144       14.1699419331       23.5453218657
  C         2.4258214220        9.1841549769       19.8855137808
  C        -0.1207202008       10.9674152922       26.7697744670
  H         0.2176450481        9.2144207601       25.5155795650
  C        -0.6486498347       12.6663154002       27.8862205894
  H         5.4171483880       13.7955475328       24.2854383121
  H         4.5752232363       15.1688766185       24.0213286847
  C         5.2701922558       14.2334539394       22.1071763990
  C         2.4124206676        7.7673607436       19.6559097610
  C         2.9907415426       10.0476450945       18.8003231437
  C        -0.5780881152       10.2400264227       27.9769435484
  C        -0.8310062160       11.5962026590       28.6930227983
  S        -1.0869896430       14.2077836041       28.6324931776
  H         6.2748144646       14.5721479870       22.2654842001
  H         4.8474414103       15.0966172925       21.6553645136
  C         5.5234867385       12.9497239431       21.1951143095
  N         1.9972422362        6.8499866932       20.5826467946
  C         2.7583661915        7.2509661272       18.3819400499
  C         3.3212527047        9.4836681656       17.5836232791
  H         3.1911405254       11.0872476309       18.8827960893
  C         0.4879040073        9.4181835626       28.7242587334
  C        -1.8487136218        9.5012004585       27.7180331145
  C        -1.1635429666       11.9871237282       30.0085241731
  C        -1.3101745916       13.3224966493       30.0831373901
  H         6.5055130189       12.5449753460       21.4192433165
  H         4.8358911138       12.2235084600       21.3266474487
  C         5.5532810112       13.4307517989       19.6670229010
  S         1.9880079198        5.4188185058       19.7309978111
  N         2.6295795853        5.8527085461       18.3573708747
  C         3.2329934363        8.0365711718       17.3214091839
  H         3.6649364781       10.1767180254       16.8749068598
  H         0.8535120713        8.7014938115       28.0107045648
  H         0.0735724239        8.8097728589       29.5749003342
  C         1.6827637829       10.2819232032       29.2589470799
  H        -1.5804492925        8.7873304624       26.9901262642
  H        -2.2153895117        8.9273711291       28.5929853757
  C        -3.0689909499       10.2840226262       27.2633855897
  H        -1.3126399041       11.3336793021       30.7810786254
  C        -1.6764207537       14.0570141233       31.3188636954
  H         4.8071515308       14.1723832140       19.3830171825
  H         5.2009181215       12.6063102556       19.0413846453
  C         7.0315013279       13.7784204761       19.2913655658
  C         3.5035711127        7.3909682708       16.0841751206
  H         2.0029840566       10.8888356348       28.4454543972
  H         1.4056537822       10.9353427868       30.0553843845
  C         2.7614129558        9.4243939800       29.9451857602
  H        -2.8306601135       10.9786332109       26.4896766146
  H        -3.4951100379       10.8738943192       28.1129502859
  C        -4.2467376285        9.4895693625       26.6870938335
  C        -1.6671490693       15.4883542582       31.4652947919
  C        -1.9733024533       13.3184004010       32.5419007313
  H         7.3967357775       14.6512749281       19.7802125388
  H         7.7577441288       13.0046047972       19.5779429828
  C         7.2793279210       14.0250716035       17.7500977485
  H         3.3645663229        6.2875524716       16.0779342197
  C         3.7747051074        7.8010009106       14.8361799706
  H         3.0091680210        8.6484577063       29.1719611722
  H         2.2782748754        9.0758946570       30.8635509195
  C         3.9704026070       10.1982004664       30.3305025287
  H        -3.7858864591        8.8255272373       25.9944243387
  H        -4.5946499898        8.8648204677       27.4820161787
  C        -5.2884357013       10.4466063998       26.1399098124
  N        -1.3723996582       16.4531728953       30.4486042176
  C        -1.9065686737       16.1174950343       32.6774304939
  C        -2.0899291366       13.9460458666       33.8054923551
  H        -2.0354836365       12.2427061719       32.5222770547
  H         8.2237711720       14.5640500280       17.6178788245
  H         7.3015415635       13.0841716990       17.2507267843
  H         6.5516653836       14.6388227870       17.3742260237
  S         4.0937326150        9.3804905490       14.3172331340
  C         3.8804078034        6.7751700453       13.7626548821
  H         3.8612897175       11.1319327069       29.7567367678
  H         3.9058897777       10.4861260391       31.4079532231
  C         5.2585015660        9.4477881608       30.0087478887
  H        -4.9938609073       11.4333006191       26.4159845025
  H        -6.1696967166       10.2232059709       26.7228418685
  C        -5.6235402448       10.4658758759       24.7292041668
  S        -1.4534684315       17.9993673009       31.0395537798
  N        -1.9246941750       17.5174231143       32.5482669063
  C        -2.1717017146       15.4287420234       33.8613518058
  H        -2.2783726839       13.4618333027       34.7142373230
  C         4.3116483688        8.7178838954       12.6938230563
  N         4.2740399269        7.3658830194       12.5930798243
  O         3.8475949780        5.5373621474       13.9786122356
  H         6.1041426101       10.1354542277       29.9162123818
  H         5.1011406126        9.0262202689       29.0151743392
  C         5.6219270006        8.4489452006       31.0523547859
  H        -4.8818552973       11.1332488486       24.3004802458
  H        -5.5725862874        9.4656527598       24.2979766099
  C        -7.0198260065       11.0917560148       24.5137150242
  C        -2.4417334555       16.2965133015       34.9476012369
  S         4.9465928303        9.6103416811       11.3836942530
  C         4.4279022474        6.6077094247       11.3820298989
  H         6.6831680857        8.5010596633       31.1605400778
  H         5.1646162742        8.7301769334       31.9891065019
  C         5.1972711512        7.0210481070       30.6043456659
  H        -7.0366435692       11.3195063721       23.4630987412
  H        -7.1436733706       12.0122349644       25.0924257955
  C        -8.1715965120       10.1385312686       24.7158625497
  H        -2.1675578539       17.3385986586       34.8373962883
  C        -2.9173161540       16.0401352113       36.1787629888
  H         4.7722361921        7.1566055660       10.4879496361
  H         5.2588007444        5.8989099529       11.3706009255
  C         3.0770486034        6.0823633684       10.8573840956
  H         5.2830288489        6.8963519750       29.5540806187
  H         4.1910225883        6.8087202907       30.9453575512
  C         6.1665384080        6.0369825261       31.2205174673
  H        -8.8884269216       10.4493948962       24.0333696307
  H        -7.9845631566        9.0928848841       24.3634222332
  C        -8.8853230139       10.1745859374       26.0887015050
  S        -3.5263853319       14.5731186702       36.7402226764
  C        -3.0482290485       17.1271067119       37.0998679434
  H         2.2884288444        6.8499614327       10.9525892245
  H         3.1792984170        5.6906585188        9.8845254901
  H         2.7155029841        5.2163565145       11.4486398997
  H         6.9251780240        6.4338235357       31.9462258595
  H         6.7140646067        5.6587437585       30.4100435653
  H         5.5895001733        5.3247775628       31.7230135021
  H        -8.4642087104       10.9988560798       26.7724812755
  H        -8.7165788449        9.2049241744       26.5577831612
  H        -9.9471513939       10.2314221754       25.8151519980
  C        -3.7348187771       15.3643086464       38.3053062553
  N        -3.6172460463       16.7230242924       38.2659245367
  O        -2.7361686941       18.3139018953       36.8255273911
  S        -4.5969510583       14.6815857632       39.6978866927
  C        -3.8616752297       17.6653560873       39.3146342385
  H        -4.3613831605       18.5130271609       38.9955455772
  H        -4.6016796211       17.2653055217       40.0883204638
  C        -2.5755104106       18.0790446422       40.0610184938
  H        -2.3226091788       19.0869327330       39.7704804808
  H        -2.8475486760       18.0633466047       41.1649380367
  H        -1.8606148999       17.3435701299       39.7888271670
