352
i=
  H         4.5277640806        1.7862183878       12.0694535274
  C         3.7722616394        2.5806796192       12.1890056359
  H         4.4060154545        3.4336014344       12.2293896431
  C         2.8902503208        2.5113297811       11.0011315577
  C         3.3913616163        2.2570054144       13.6077223430
  C         3.6960413849        2.8094408237        9.7408420049
  H         2.1185702757        3.2961293682       10.9637161086
  H         2.2407519673        1.6002886757       10.9105789411
  H         2.5146099187        2.7728989949       13.8722499040
  H         4.1562803377        2.5594135610       14.4001858355
  H         3.1567746111        1.2077868879       13.7485893574
  C         4.4753745117        1.5736598889        9.2826869064
  H         2.9530910683        3.0904122316        9.0463346705
  H         4.2608218712        3.7892362721        9.8467565747
  C         5.3198978081        1.8556803423        7.9757379026
  H         3.6902078611        0.8645088830        8.9604188761
  H         5.0524688332        1.1332340667       10.0473963657
  C         6.6257432843        2.5854899351        8.2586080864
  H         4.8126328564        2.3025546367        7.1556765348
  H         5.6008892410        0.9245694631        7.5416638848
  C         7.8141210950        1.6903817928        8.5568231330
  H         6.8490231682        3.1026712500        7.3998348413
  H         6.4269885379        3.2309953110        9.0273514551
  C         9.0298332999        2.6912077182        8.8532438873
  H         8.0704006571        1.1507840667        7.7035100400
  H         7.6340295305        0.9379461535        9.3782243972
  C         8.7684043902        4.0062271172        9.5769414498
  C         9.4518244421        3.4334913773        7.6671866784
  C        10.2723123476        1.9300748264        9.3844090026
  C         9.0421430836        5.1385266114        8.8216364790
  C         8.1890011046        4.4305051893       10.8397742089
  C         9.4152007433        4.7434232596        7.5716962189
  C         9.8714227852        2.7845643781        6.4769741726
  H        10.0333054945        1.4380942162       10.3371833209
  H        10.4521567967        1.1037018014        8.6571942380
  C        11.5127812848        2.7191571897        9.5420584628
  S         8.7198740346        6.6688153486        9.6302179544
  C         8.2518709550        5.7630436122       11.0538060918
  H         7.8181479347        3.6634495373       11.5846802367
  C         9.7869699567        5.3528737409        6.4158361924
  H         9.9722175657        1.7060082954        6.5709090926
  C        10.2755438240        3.4734163669        5.3875382171
  H        11.2947878509        3.7408045719        9.7277034239
  H        12.1253005955        2.8342566062        8.6078486461
  C        12.2945162001        2.2940127603       10.8488812534
  C         7.8061259876        6.4623180241       12.3719281195
  C        10.2203244052        4.8014640647        5.2808113278
  H         9.6334179403        6.4304025796        6.4551658698
  C        10.6369097774        3.1106107377        4.1096084560
  H        13.3157963164        2.5871103485       10.9363237588
  H        12.3506579953        1.1711975993       10.9289989209
  C        11.8187742835        2.7962212757       12.2330131520
  C         7.7312690428        7.8523739271       12.6657709657
  C         7.4716537241        5.5680274881       13.4880153839
  C        10.7365652830        5.4259263696        4.0703448263
  C        10.9074183558        4.1694928698        3.2890365274
  S        10.8413235390        1.5793551548        3.2689742645
  H        12.1135371008        3.8336339239       12.4410195517
  H        10.6897105329        2.8679988096       12.2652338585
  C        12.2971720789        1.8988102300       13.3691425730
  N         8.0647519638        8.8390211707       11.8190349931
  C         7.4166040236        8.3109829149       13.9461171331
  C         7.1044249534        6.0425258932       14.7234573842
  H         7.4826840451        4.4808656136       13.4277478641
  C        12.1345956162        6.0850621796        4.2527745599
  C         9.7362079934        6.4330275537        3.3825146452
  C        11.2719906891        3.8451171345        1.9700342971
  C        11.2253592403        2.4418509675        1.8446950194
  H        13.3194736599        1.5892445985       13.2361126520
  H        11.7891267525        0.9811609121       13.3043225671
  C        11.9326501201        2.4392502455       14.7512916139
  S         7.8387548101       10.3144194839       12.5787160772
  N         7.3978493829        9.6748894349       13.9992418474
  C         7.0234381632        7.5217977861       14.9865697872
  H         6.8753077118        5.3289478944       15.4755723990
  H        12.0856370524        6.9566570489        4.8147405365
  H        12.5441567917        6.3944787429        3.3367564098
  C        13.1874740486        5.1636221210        4.8906056064
  H         9.4892298323        7.2689204950        4.1144288382
  H        10.2055593948        6.8876730169        2.5078748883
  C         8.4734310682        5.6825103190        2.9108672948
  H        11.2698392876        4.6055157690        1.2303251503
  C        11.4437253664        1.6798475649        0.5976012482
  H        12.0544078075        3.5343993974       14.6721173560
  H        10.9153388827        2.2222063847       15.0824926600
  C        12.8772897726        1.8919017096       15.8734684336
  C         6.7847863417        8.1195042058       16.2489901634
  H        12.8763184301        4.5110628672        5.6962826907
  H        13.5204479902        4.5065311792        4.0628762980
  C        14.4955660697        5.9194021048        5.2949039566
  H         8.0508474035        5.1638641666        3.7506991894
  H         8.7333376261        4.8725970416        2.2630488956
  C         7.4672345264        6.6197200882        2.1536119327
  C        11.5273920594        0.2744103221        0.4925723078
  C        11.7827694292        2.3796271670       -0.6408812566
  H        13.8549222104        1.6402537498       15.4961852131
  H        12.4506167899        0.8993270536       16.1366707501
  C        13.1125834949        2.6605055060       17.1251854124
  H         7.0154914699        9.2499229957       16.3014810254
  C         6.4937955687        7.7014737911       17.5119782719
  H        14.1951168590        6.6009795732        6.0646341547
  H        14.7955991342        6.4381762799        4.3156980447
  C        15.5235083645        4.9098716022        5.8212184650
  H         7.0495184425        7.3196918587        2.8744043794
  H         8.0379897505        7.3063763767        1.4780632107
  C         6.2508677573        5.8961514864        1.3459703598
  N        11.2748572782       -0.7425364382        1.4599403538
  C        11.9365494289       -0.3642398717       -0.7366758144
  C        12.1782079590        1.7298051783       -1.8127329101
  H        11.7707622594        3.4412583075       -0.6588159103
  H        12.2279939033        2.6853835288       17.6726239113
  H        13.6142965590        3.6418288483       17.0736281279
  H        13.7228801151        2.0364566640       17.6762894150
  S         6.1678924642        6.0381632336       17.9323793336
  C         6.2509172677        8.7190982082       18.5361920875
  H        15.1536857221        3.9563205933        6.1473026309
  H        16.1746972246        4.6779302878        5.0028711425
  C        16.3093325782        5.5126820165        7.0088169196
  H         5.6294630226        5.2204959794        1.9328190992
  H         6.7326430015        5.3581665982        0.5126893916
  C         5.2312716438        6.8509905978        0.6963688947
  S        11.5976636831       -2.2341148463        0.8616851774
  N        11.8997488521       -1.7632690814       -0.6786744382
  C        12.3076004419        0.2787577939       -1.9252901571
  H        12.3243869176        2.2478998496       -2.7127671632
  C         5.9214129469        6.7577476062       19.5603222660
  N         5.8651986963        8.1155925269       19.6483335332
  O         6.2323435900        9.9507723234       18.4235373324
  H        16.5437805502        6.5929208836        6.9010287388
  H        15.6086935970        5.3617713977        7.8620566860
  C        17.6426988625        4.6836262777        7.1394052862
  H         5.7706572508        7.6011251626        0.0878779907
  H         4.7226893522        6.2496611243       -0.0814977078
  C         4.2117199094        7.4610993736        1.6855313214
  C        12.7301120132       -0.4674619953       -3.0380046155
  S         5.4190016176        5.8069849904       20.9841484551
  C         5.6502149719        8.7555989942       20.9853049546
  H        17.5919734758        4.2046635661        8.0926009759
  H        17.6711460373        3.8318291106        6.3912719646
  C        18.9324235085        5.4952703670        7.0272514890
  H         4.4288637536        7.1316586105        2.7147650857
  H         3.1583312629        7.1945393005        1.4849515905
  C         4.3279710911        9.0411504795        1.7768137298
  H        12.3540982327       -1.5278748717       -3.0094171707
  C        13.3888109170       -0.2028026646       -4.2311542450
  H         4.9605258448        8.2406345118       21.6560587268
  H         5.2544542164        9.7938462245       21.0014400495
  C         6.9865426074        8.8491250712       21.8133107311
  H        19.7881388608        4.8693148617        7.2616538559
  H        18.9531338040        6.1921378842        7.8816430222
  C        19.1647931202        6.1147111853        5.6642297873
  H         3.8226621841        9.3631867321        2.6223585253
  H         5.3974031303        9.2112233798        1.9689156863
  C         3.9449895036        9.7669935712        0.4288938127
  S        14.1327856598        1.3374037029       -4.6700911728
  C        13.4140237136       -1.2522016704       -5.2740454804
  H         7.7528540641        8.1615942267       21.5731092096
  H         6.7725225575        8.6266765447       22.8733847739
  H         7.4099286618        9.8576371759       21.7697899738
  H        19.2402592709        5.4468124928        4.8272006886
  H        18.4378007329        6.9751971020        5.4430613185
  H        20.1374352786        6.5656102446        5.7536385500
  H         3.7092659408       10.8358685283        0.5654608054
  H         4.7282177585        9.6106993321       -0.3344739061
  H         3.0130462650        9.3957533480        0.0105868493
  C        14.3577226587        0.5430790953       -6.1793811000
  N        14.0111429032       -0.7399024091       -6.3336810140
  O        12.9196886098       -2.3769370052       -5.1056629773
  S        15.0079862572        1.4021961848       -7.5316060428
  C        14.0789982976       -1.3980913546       -7.6051654025
  H        14.1678552517       -2.4610040213       -7.4795555997
  H        15.0059073462       -1.1627471450       -8.1513363595
  C        12.8357815134       -0.8550789135       -8.3545162045
  H        12.1371760603       -0.4316058327       -7.6504463120
  H        12.3455095399       -1.6245809194       -8.8820102440
  H        13.0946000517       -0.1052636246       -9.1372783513
  H        -1.3299219649       14.8836331894       16.5829432693
  C        -2.2218054728       14.3623444592       16.7851469680
  H        -2.9422403158       15.0864862296       17.1045703846
  C        -1.9540495073       13.3429929958       17.9115816076
  C        -2.6749429535       13.6861156740       15.4844133749
  C        -2.3558926109       13.7737127352       19.3388756924
  H        -2.5198734660       12.4497185788       17.8133531490
  H        -0.8404619683       13.1086031855       17.9581911787
  H        -2.0105233429       13.7856964435       14.6388127639
  H        -2.7824009307       12.6057171418       15.5225020317
  H        -3.7078368587       14.0848300338       15.3073042602
  C        -2.5792891520       12.5899544837       20.3353246496
  H        -3.2806771319       14.2932003099       19.4060513128
  H        -1.5477421957       14.3874076564       19.6874268007
  C        -2.7967629025       12.9148475763       21.7744407735
  H        -3.3443757203       11.9394610613       19.9855342338
  H        -1.6508990704       12.0079650316       20.3505098833
  C        -1.5474096976       12.5271694256       22.6633463332
  H        -3.7699195625       12.4764611381       22.0617973802
  H        -2.9947233927       13.9739710867       21.7212223635
  C        -0.3206016056       13.4583927758       22.5280714167
  H        -1.8808287877       12.4871607164       23.6667740798
  H        -1.2773377591       11.5340119839       22.4035229033
  C         0.8583309371       12.9992741363       23.3581970912
  H        -0.0105265810       13.4843880517       21.5079328802
  H        -0.4625824543       14.4904393622       22.6913714198
  C         1.2969498654       11.6807664481       22.6998845842
  C         0.4659867796       12.2915190223       24.6076613249
  C         1.9913439890       14.0322526396       23.4568296649
  C         1.1141736782       10.5720111330       23.5328847434
  C         1.9207498082       11.3517427972       21.4851858242
  C         0.5842765854       10.9462771013       24.7931659310
  C         0.0138055926       12.9187213467       25.7893033348
  H         2.1541215030       14.4821523129       22.4264991170
  H         1.7152866926       14.8392196872       24.1044453494
  C         3.3273709152       13.3662794606       23.9203701763
  S         1.4447888420        9.0661539752       22.7624180863
  C         1.9229041011        9.9779882407       21.3370810574
  H         2.1899494988       12.1024562409       20.7827833298
  C         0.1469130624       10.2673929271       25.8903090383
  H         0.1487380542       13.9751975074       25.7600703393
  C        -0.3448448714       12.2209281172       26.9125341414
  H         3.7254673581       12.7237973010       23.1722083093
  H         3.1040639308       12.8045598934       24.8239827148
  C         4.3785758163       14.4658735120       24.2919885940
  C         2.4014662374        9.2526822647       20.0787270280
  C        -0.3719595455       10.8368239681       27.0015682471
  H         0.2661716940        9.1768187395       25.7790445283
  C        -0.7036038526       12.5439152898       28.2043799286
  H         5.1265539670       13.9932234690       24.8971357157
  H         3.9699355828       15.2623619887       24.8825293135
  C         5.0575493502       15.1186509737       23.1050171509
  C         2.4053783606        7.7958244568       19.9313150952
  C         2.9199198771       10.0296061732       18.9311950050
  C        -0.8533693195       10.1429880982       28.2451836905
  C        -0.9274652176       11.4366680680       29.0041044496
  S        -0.9919924217       14.0674820464       28.8847786226
  H         5.7445779588       15.8472074340       23.5339357005
  H         4.3470847671       15.6902216078       22.5052607080
  C         5.8756144466       14.1836569827       22.1536084658
  N         1.9903673787        6.8349309512       20.8318676690
  C         2.7731131784        7.2568767983       18.6744890714
  C         3.2897179816        9.4545204885       17.7007787290
  H         3.0823475974       11.0550426599       19.1330435951
  C         0.2262458502        9.2480239169       28.8915053443
  C        -2.2562768741        9.5067445565       28.1099015037
  C        -1.3705515073       11.8560847375       30.2841162098
  C        -1.4171672384       13.2040305521       30.3602347204
  H         6.8777828382       14.6320104347       21.8776665197
  H         5.9894598361       13.2820118540       22.6369329206
  C         5.2445183775       13.9693604610       20.8243397576
  S         1.9228810965        5.4025593915       19.9575959123
  N         2.7140353566        5.8789746490       18.6117759712
  C         3.0847245936        8.0389782419       17.5587922291
  H         3.8569989212       10.1302511054       17.0344854469
  H         0.3710608694        8.4138641370       28.2238989695
  H        -0.1173588063        8.8360837164       29.8135966147
  C         1.5920709207        9.9526713407       29.1905260116
  H        -2.1898776479        8.6208838390       27.4959912835
  H        -2.5594786710        9.2925967709       29.1029652742
  C        -3.3406899377       10.3956413814       27.4362429055
  H        -1.6709500516       11.1204547965       31.0743109454
  C        -1.5461377349       14.0408048134       31.5980559274
  H         5.0248510090       14.9448760062       20.3993975284
  H         4.3152529402       13.4855861536       21.0111154165
  C         6.0058443098       13.2389220651       19.7017802278
  C         3.4031109587        7.3190408258       16.3250981527
  H         1.9264362602       10.5509192132       28.3631206044
  H         1.4896581718       10.7612111568       29.8984708893
  C         2.8275766260        9.1035364102       29.5192247251
  H        -2.8642669652       10.8109021761       26.6039737973
  H        -3.7085267288       11.2642892309       27.9543685328
  C        -4.5884901202        9.5213659325       27.1100341750
  C        -1.5657780280       15.4757939956       31.7268613741
  C        -1.7395841169       13.3823338331       32.9205707122
  H         6.0553941320       12.1986823391       19.9487423863
  H         5.2955210630       13.1389828446       18.8808175906
  C         7.4211491866       13.7985889540       19.3195526827
  H         3.0944529564        6.2804465514       16.1918314956
  C         3.5933429687        7.8043956055       15.0715307136
  H         2.9517003020        8.4818033802       28.6095323446
  H         2.5556857843        8.3572242491       30.4018324739
  C         4.1429341776        9.9146762277       29.6837651202
  H        -4.4799725871        8.6555346840       26.3881888481
  H        -4.9067049796        8.9208466482       27.9652583774
  C        -5.7197237660       10.4466427268       26.6975949293
  N        -1.4482787873       16.3998954560       30.7026889441
  C        -1.8315990364       16.1485177949       32.9100117884
  C        -1.9915349305       14.0166667563       34.1354346878
  H        -1.5932416404       12.3696097383       32.9163820509
  H         7.2733710865       14.7449658143       18.8040527588
  H         8.0465152685       14.0638153024       20.1046382950
  H         7.9097569474       13.0719730184       18.6812443850
  S         3.9672881467        9.3486215519       14.6106705512
  C         3.6428441870        6.7464293677       14.0020250935
  H         4.2663009075       10.6931819359       28.8620801241
  H         3.9958645565       10.5136128976       30.5432484898
  C         5.3069854132        8.9169551524       29.8068073223
  H        -5.4974918324       11.1826400368       25.8796660420
  H        -6.0078340758       11.1848406337       27.4958837984
  C        -6.9345483109        9.6563942388       26.2759069664
  S        -1.2749365078       17.8378875939       31.3101962597
  N        -1.8163638439       17.5458085992       32.7748122608
  C        -2.1239886179       15.4829061781       34.1498873752
  H        -2.1493054086       13.5002000235       35.0581154024
  C         4.1446632327        8.7889861399       13.0191604121
  N         3.9809735480        7.4610077606       12.8621537161
  O         3.3254798794        5.5643092948       14.0715706390
  H         6.2310836152        9.4377490446       29.7123891969
  H         5.3173675152        8.1746746676       28.9591681258
  C         5.1773189186        8.1346893913       31.1629196634
  H        -6.5808473117        9.0070706871       25.4908259143
  H        -7.2387692107        9.0731020973       27.1148564995
  C        -8.0046878134       10.5122227354       25.5184107343
  C        -2.4371284201       16.2243693671       35.3124708682
  S         4.6592448920        9.7271347322       11.6174793550
  C         4.0228623858        6.8549017099       11.5002978300
  H         4.9496374133        8.8704461339       31.9506985979
  H         4.3560883875        7.4851390195       31.1146182021
  C         6.4015483165        7.2714754459       31.6998192866
  H        -7.6269528942       11.0662929520       24.6903033524
  H        -8.3692799116       11.3415475195       26.1759954864
  C        -9.2605655400        9.7375664345       25.1524348334
  H        -2.1467796056       17.2366053475       35.1774877936
  C        -3.0116054742       15.9994401706       36.5440344194
  H         4.7825191304        7.4122523288       10.8900563726
  H         4.4178440280        5.8325246743       11.5107841931
  C         2.6872967810        7.0064691914       10.7750644621
  H         6.1662323638        6.8242304797       32.6521784999
  H         7.3157179914        7.8870883611       31.8206044031
  C         6.6203597611        6.2320268293       30.7307309236
  H        -9.4962389896        9.9711266289       24.1035143098
  H        -9.0566442554        8.6516819448       25.2923316918
  C       -10.3528917190        9.9901012956       26.1622238299
  S        -3.8044515890       14.5088534089       36.9061840038
  C        -3.1617030273       17.0540005645       37.6044209292
  H         2.9770407744        6.9786268940        9.7039467387
  H         1.9883284314        6.1900644814       10.9987033931
  H         2.2307572583        7.9381019383       10.9932140707
  H         7.3028200991        5.5723240330       31.3347704361
  H         7.1700502884        6.5526202378       29.8552672335
  H         5.7156152385        5.8024655034       30.3899891403
  H       -10.5323449410       11.0584128691       26.2674251591
  H       -10.1620111696        9.4897805307       27.1182547105
  H       -11.2931602773        9.6689063127       25.8380550351
  C        -4.1056818279       15.1752835481       38.4768995312
  N        -3.7359936040       16.4742242784       38.6814934656
  O        -2.5793195524       18.1759956160       37.5852747171
  S        -4.6518385805       14.2028011911       39.9850471792
  C        -3.8036891325       17.1511966658       39.9783559463
  H        -3.7027353785       18.2432885229       39.9521912781
  H        -4.7532826052       16.9765357462       40.4741600679
  C        -2.5218777387       16.7954357609       40.7586479119
  H        -1.7921094185       17.5802912208       40.4130296643
  H        -2.6855460755       17.2042132234       41.8012629966
  H        -2.1576808882       15.7800125107       40.6961785195
