352
i=
  H         3.1963905772        3.6716562186       12.0750447101
  C         3.2360654964        2.6064197959       12.2901433647
  H         2.4606746684        2.3793800761       12.9714541605
  C         2.8701626445        1.9010266770       10.9578301573
  C         4.6458410557        2.3566408810       12.9313466969
  C         3.7918555977        2.2756951619        9.8129980149
  H         1.8760990389        2.1821010088       10.7634071890
  H         2.9425563900        0.8129797678       11.1815275973
  H         5.4908714279        2.5991414084       12.2105371734
  H         4.8155380033        1.3894268322       13.3365919297
  H         4.6464986661        2.8797668315       13.9334890772
  C         4.7143259589        1.1388696404        9.2812543961
  H         3.1471490712        2.4854031981        8.9830704575
  H         4.4517399213        3.1416890406       10.0301341316
  C         5.6156347981        1.6583946781        8.1510096009
  H         4.0375504111        0.3907043495        8.8760900202
  H         5.2182206704        0.5997214759       10.0573452511
  C         6.8141902410        2.5806449964        8.6542006486
  H         5.1559990026        2.1403210359        7.3757469648
  H         6.0025623649        0.6976550094        7.7416666410
  C         8.0496362917        1.7358751524        8.9930552622
  H         7.0291491275        3.1423129405        7.7420899888
  H         6.4330806375        3.1968309483        9.4443946130
  C         9.2933918778        2.6054661667        9.2011522145
  H         8.2910935206        1.2332186137        8.0274910070
  H         7.7222104431        1.0686528823        9.7820520668
  C         8.8745546399        3.9923018398        9.8858266333
  C         9.7792073911        3.3164371595        7.9515990345
  C        10.4584896362        1.9466379092       10.0236695360
  C         9.2539900156        5.1004616586        9.1032741600
  C         8.3606691033        4.3419318527       11.1462739596
  C         9.7528764457        4.7032190659        7.8939390399
  C        10.3038850291        2.7526663505        6.8159066213
  H        10.0923738295        1.7179430652       10.9681034469
  H        10.6429511147        1.0504030830        9.4436952615
  C        11.7586142200        2.8713475664       10.3025607601
  S         9.0547052391        6.5366764945       10.0015204900
  C         8.4435988061        5.6806850770       11.3392982230
  H         8.1282851188        3.6045875226       11.8680883243
  C        10.1502279282        5.2986807679        6.7484008640
  H        10.3362742059        1.6849039335        6.6939909824
  C        10.6933335460        3.3749930133        5.6840729877
  H        11.3975579072        3.8531552101       10.6206278648
  H        12.3270729546        3.2095111884        9.3985314647
  C        12.6278751187        2.3248245331       11.3860148582
  C         7.9567036243        6.3585965417       12.5944805111
  C        10.6123517533        4.7150283582        5.6049877061
  H        10.0589079927        6.3801694026        6.5703498274
  C        11.0592243016        2.9917018817        4.4084307316
  H        13.6059084446        2.8057471539       11.3612397480
  H        12.6866626853        1.2941351930       11.2405115541
  C        12.1036871767        2.6338188879       12.7968384968
  C         7.9021352120        7.7817815341       12.7421469781
  C         7.5698910817        5.4848960175       13.7858994805
  C        10.9542754664        5.4685453031        4.3397293635
  C        11.1811728083        4.1268626293        3.6392540978
  S        11.2619029203        1.5054012534        3.6619353839
  H        11.9052094150        3.6732956801       12.9620320037
  H        11.2217805931        2.1273071667       13.0779718151
  C        13.0513915067        2.2116904285       13.9111638128
  N         8.3575630495        8.7150094346       11.7660080923
  C         7.5468895237        8.3229591863       13.9147816642
  C         7.1140548409        6.0742760141       14.9684458379
  H         7.5612872677        4.4241939507       13.7345036664
  C        12.2007703194        6.3420049292        4.4139141191
  C         9.7522302655        6.2194581273        3.7810926765
  C        11.5592670892        3.7205522998        2.3859767353
  C        11.6840102955        2.3666217058        2.2658258390
  H        14.0683268334        2.5466814930       13.8497079288
  H        13.2245290751        1.1454759567       13.6879349610
  C        12.3373042925        2.1576334464       15.2204408495
  S         8.1528860899       10.1664341492       12.4161464256
  N         7.6295368758        9.7070932766       13.9127122525
  C         7.2094079160        7.5603405546       15.1004988625
  H         6.8875459314        5.4099393435       15.8196852501
  H        11.9760188333        7.1977700146        5.1036675502
  H        12.4192990525        6.7914652644        3.4918638857
  C        13.4415175469        5.5864171066        4.9095267824
  H         9.6453683196        7.1279634034        4.3825768908
  H        10.0489962614        6.5990452688        2.8109050237
  C         8.4003050017        5.4984047182        3.5903132082
  H        11.8160908980        4.4050583893        1.5902616598
  C        11.9708657414        1.6563336905        0.9399415814
  H        11.8190248254        3.0860382294       15.4419432959
  H        11.6953220172        1.2976846363       15.2902732048
  C        13.2687197998        1.7907717739       16.3659340559
  C         6.8934830805        8.2623539180       16.2818547764
  H        13.1044493913        4.9350879354        5.6804309127
  H        13.6714899931        4.8583596427        4.0720840460
  C        14.7088391302        6.3740355320        5.3551221672
  H         7.9920849304        5.5672881011        4.5714768767
  H         8.6248891873        4.4591424611        3.4026256086
  C         7.4560413307        6.1674254193        2.5525999500
  C        11.9354875866        0.2623659774        0.8257269224
  C        12.1379569051        2.4442073840       -0.3335423353
  H        14.3215347746        2.1201268284       16.1871219859
  H        13.2412865881        0.7353655479       16.5342734935
  C        12.7807985781        2.4805214449       17.6569501761
  H         7.1710917718        9.3240819841       16.2611063591
  C         6.6302364966        7.8548902445       17.5288613612
  H        14.3552959042        7.1917887553        6.0115883943
  H        15.2827405674        6.7974265195        4.5317248108
  C        15.6377963632        5.4540735246        6.1382793909
  H         6.8995454807        6.8925743224        3.0377680570
  H         8.0270526193        6.5423459396        1.6848925267
  C         6.4390952062        5.1290182763        2.0052570012
  N        11.6084038174       -0.6091922152        1.8335377498
  C        12.1773139845       -0.3206458353       -0.3901847363
  C        12.3695896832        1.8036243217       -1.5880429880
  H        12.0599828015        3.4894810434       -0.2772841345
  H        11.7631339849        2.2873119305       17.7856993855
  H        12.8915957826        3.5739471676       17.5492534512
  H        13.2841586126        2.1079992047       18.5277268435
  S         6.5037416210        6.2102649232       18.1855624097
  C         6.4939003306        8.9466094470       18.5517856374
  H        15.1451665411        4.8735239293        6.9321654543
  H        15.9615808379        4.7430770176        5.4070663846
  C        16.8040092607        6.2205427383        6.7036521291
  H         5.8530894191        4.6905453168        2.8304474246
  H         7.1159840172        4.3645520096        1.6632551176
  C         5.5836114029        5.6737478131        0.8879207786
  S        11.5441472202       -2.0866859712        1.1517098996
  N        12.1314940344       -1.6830313118       -0.3111319413
  C        12.4321166956        0.3414556162       -1.6058275750
  H        12.5104758356        2.3298276622       -2.5271734546
  C         6.0723606183        7.0394221222       19.6870364498
  N         6.1744898404        8.3782693264       19.7235615491
  O         6.4005566388       10.1550188723       18.3804237762
  H        17.3373310840        6.7660273762        5.9308146852
  H        16.3333366067        6.9285309115        7.3620180693
  C        17.6282634614        5.0886396834        7.3408662543
  H         6.1641374558        5.7198262471       -0.0437899797
  H         4.7521686379        4.9763349282        0.6722963001
  C         4.7998031280        6.9799794594        1.2318754522
  C        12.6827636806       -0.4491973253       -2.7847374579
  S         5.4088746445        6.2289533530       21.1400618726
  C         6.2736797202        9.1774123489       20.9483309658
  H        17.0817115849        4.7027362098        8.2094558450
  H        17.6841185112        4.2720761824        6.6731854359
  C        18.9789207510        5.6920944395        7.7692536825
  H         4.4269799945        7.1430489774        2.2292524832
  H         3.8310088010        6.9310401547        0.6057418452
  C         5.3836523687        8.3331469609        0.7090846680
  H        12.3609461903       -1.5061691957       -2.7974600240
  C        13.1183392988       -0.0496952325       -3.9816077558
  H         5.5543644617        8.8767139822       21.7589295525
  H         5.9677377128       10.1892513668       20.9231300445
  C         7.7170641711        9.2071334838       21.4024004230
  H        19.5495666777        5.1027873239        8.5458584024
  H        18.8531791964        6.6369506389        8.3078572366
  C        19.9595265005        5.8938727086        6.5730742338
  H         6.3701197100        8.5887595222        1.2931091376
  H         5.6738691191        8.2419222552       -0.4412922030
  C         4.4236532299        9.4960077864        0.9967406612
  S        13.7050646854        1.5242230247       -4.4999327621
  C        13.1717223244       -1.0827089261       -5.0405844947
  H         8.4993341851        9.3085995668       20.6636932947
  H         7.9414875234        8.4449124185       22.1015254136
  H         7.7854457840       10.1479138363       21.8289273333
  H        19.4861133586        6.2986573111        5.6458264123
  H        20.6689218739        6.6972857560        6.8503536621
  H        20.4769490551        4.9619541025        6.2993825508
  H         4.9854486730       10.0261170000        1.8192223024
  H         4.1894250578       10.1696320689        0.2019858862
  H         3.4726897209        9.0990270997        1.3964592228
  C        14.1542580866        0.6820540396       -6.0056105177
  N        13.9101483103       -0.6256809008       -6.0349857636
  O        12.7706240560       -2.2570659542       -4.9542121886
  S        14.9713348076        1.3535485058       -7.4845283052
  C        13.9059974015       -1.4316005943       -7.1997173906
  H        13.9822618510       -2.4887254909       -7.0584389756
  H        14.7760405014       -1.3197740666       -7.7621040114
  C        12.6608234165       -1.1406449551       -8.0544537977
  H        12.8212296132       -1.3405380712       -9.1081005716
  H        12.2893170947       -0.1490250168       -7.8512029810
  H        11.9265043723       -1.8146456226       -7.6258676264
  H        -2.3655022951       12.5816636885       17.0400064124
  C        -2.3627203310       13.5402486327       16.4936816499
  H        -1.2620920651       13.6132686981       16.3403660581
  C        -2.8316929110       14.5529459486       17.5363678606
  C        -3.0318431639       13.6201101716       15.0925477326
  C        -3.3701271229       14.0233681450       18.8415902882
  H        -1.9409465045       15.1498371295       17.7690138473
  H        -3.5124945396       15.2686537863       17.0845956183
  H        -2.7470024876       12.7552037468       14.4587253840
  H        -4.0473052684       13.4564596077       15.2373159804
  H        -2.8321926090       14.6135663886       14.6678313981
  C        -2.2600341271       13.3570968161       19.6011686474
  H        -4.0981723760       13.2516848931       18.5376340210
  H        -3.9285394700       14.7429608997       19.4098725157
  C        -2.5315203114       13.2677499251       21.0819311584
  H        -2.0568782351       12.3146520408       19.2670125258
  H        -1.3183992773       13.8357202911       19.3918297007
  C        -1.2938044286       12.7570083285       21.8502620471
  H        -3.3146071635       12.5575074568       21.2724707263
  H        -2.8845373723       14.2420161214       21.3880867535
  C        -0.2605894468       13.8189408417       22.3431117893
  H        -1.6380950282       12.3462192016       22.8079915953
  H        -0.7258334746       12.0270095923       21.2977981457
  C         0.9468085757       13.1594895589       23.0693288999
  H         0.0540007813       14.3860867358       21.4831924564
  H        -0.7569101989       14.3916295963       23.0865314321
  C         1.4854111371       11.8170922016       22.4675996975
  C         0.5134907204       12.4153075159       24.3593024445
  C         2.1963697280       14.1117440231       23.2472881706
  C         1.2621142491       10.7309300201       23.2704457255
  C         2.0259557640       11.4084529254       21.2098353642
  C         0.6999366874       11.0927907124       24.4621348976
  C         0.0384608198       13.0340653625       25.5545200069
  H         2.2723224930       14.7554575741       22.4230154038
  H         1.8750688243       14.7563728961       24.0342861333
  C         3.5508949022       13.5334451494       23.6832243829
  S         1.8891516104        9.2134293323       22.6294856883
  C         2.1894460495       10.0467447647       21.1133222745
  H         2.2961731301       12.1343313889       20.4524068819
  C         0.2666021029       10.4757235361       25.5981748145
  H         0.0967233023       14.1006914027       25.6089139554
  C        -0.2345142067       12.3863544671       26.7172019378
  H         4.0146415660       13.0668349280       22.8262334547
  H         3.2996915929       12.7766156341       24.4973081964
  C         4.5964143966       14.5690373417       24.2657286191
  C         2.6149878069        9.3014954782       19.9344888032
  C        -0.1550690186       11.0167217694       26.8066332426
  H         0.3034062157        9.4176709185       25.6585324751
  C        -0.6133467525       12.7043376627       28.0250294504
  H         5.3602944508       14.0794178502       24.9758228741
  H         4.0867571065       15.1651634125       25.0213703291
  C         5.2137538766       15.4001594040       23.1464550137
  C         2.5367340455        7.8937677466       19.7593263963
  C         3.0701897808       10.0482318815       18.7263591927
  C        -0.6025528970       10.3587162973       28.1219805181
  C        -0.8162526209       11.6247590572       28.8352782319
  S        -0.7984229141       14.2257661046       28.8223520354
  H         5.8660758308       16.1013542144       23.6567783607
  H         4.5546272889       15.9439140805       22.5700528686
  C         6.0858361672       14.6064322592       22.2399684151
  N         2.1255668063        6.9766709228       20.7276188520
  C         2.7374314671        7.2972198095       18.5291672600
  C         3.3277332659        9.4795598825       17.4727262056
  H         3.2002049172       11.0833795085       18.7568663735
  C         0.5853470731        9.5473136242       28.6009808743
  C        -1.9224243875        9.4911637772       28.0385516558
  C        -1.0886275654       12.0541847287       30.1688395356
  C        -1.2762719431       13.4412031141       30.2913922182
  H         7.0305492300       15.1334552548       21.9921021103
  H         6.3945782641       13.6546707048       22.7234838150
  C         5.3827179673       14.3699113138       20.8799711054
  S         1.8908768765        5.5393024072       19.9844660982
  N         2.4092905164        5.9337788035       18.5188623654
  C         3.1832062557        7.9907857240       17.3570661141
  H         3.6823860233       10.1226879385       16.6464847923
  H         1.0045268020        9.1211824025       27.7023374061
  H         0.1297866190        8.8733853702       29.2255696928
  C         1.6775264784       10.3288888191       29.1723276807
  H        -1.8417621775        8.6033747626       27.4012145890
  H        -2.2883093335        9.1803616886       28.9730839969
  C        -3.1077103326       10.3601498547       27.3589120521
  H        -1.2808946779       11.2927716666       30.9616547802
  C        -1.6235856810       14.2327056332       31.5421530582
  H         5.5650973808       15.1823670796       20.1698804648
  H         4.3397883433       14.4379222027       20.9446779015
  C         5.9185278231       13.0797716655       20.2995502413
  C         3.3220596953        7.2270964271       16.1477023696
  H         1.9560402673       11.1387235791       28.4807591797
  H         1.3454996778       10.6486655124       30.1429266835
  C         2.9437107964        9.4031369390       29.3670443041
  H        -2.7991158576       10.9651624367       26.4814720414
  H        -3.4560683509       11.1805585411       27.9928655388
  C        -4.2937325211        9.5155059990       26.9852091573
  C        -1.7172896704       15.6311682512       31.7000590797
  C        -1.8687648112       13.4751357571       32.7665710251
  H         5.5168350862       12.2484947606       20.9533960799
  H         5.2569880535       12.7557758702       19.4016732119
  C         7.3186831825       13.1257615560       19.8230638031
  H         3.1784300434        6.2463103725       16.3201204851
  C         3.7213157711        7.6523726791       14.8721516628
  H         2.9043294255        8.8400509651       28.4605627160
  H         2.8906638274        8.6888775567       30.1557755924
  C         4.2638172533       10.1888393026       29.6194675236
  H        -3.9596090440        8.8263383943       26.1750705768
  H        -4.4012434449        8.8248676814       27.7620775596
  C        -5.5176543454       10.3343019658       26.6795637721
  N        -1.6482836876       16.4466770634       30.6182455957
  C        -2.1734718128       16.2696320835       32.8236870137
  C        -2.1394091622       14.0771204952       33.9767235997
  H        -1.8684500629       12.3955929434       32.7375913189
  H         7.7474993536       12.0986743736       19.9692397247
  H         7.2117899973       13.3363685368       18.7900537599
  H         8.0480149685       13.7485998945       20.3000047022
  S         4.0774846857        9.2966939207       14.2567129871
  C         3.8445189532        6.5462796711       13.8918183382
  H         4.5375380798       10.8539796109       28.8082440039
  H         4.1885204990       10.9539812726       30.3523069879
  C         5.4736136054        9.2489841624       29.6723057651
  H        -5.1798027769       11.2545505786       26.1525153443
  H        -5.9453112874       10.6669713298       27.6658814872
  C        -6.4527750396        9.7056007021       25.7176137492
  S        -1.9663181843       17.9508341244       31.1024377091
  N        -2.2324187597       17.6508929701       32.7032030180
  C        -2.3671605151       15.5770131583       34.0359153067
  H        -2.1737016523       13.5201414530       34.9081786110
  C         4.4197600204        8.4446168711       12.7497662291
  N         4.3165719392        7.1052134515       12.7758796016
  O         3.6244513411        5.3927672024       14.0548801587
  H         6.3672284258        9.8124934656       29.4219828472
  H         5.5285984424        8.4235943242       28.8647527684
  C         5.7585254984        8.6284533051       31.0916518533
  H        -5.8749196995        9.3844226470       24.9034399823
  H        -6.7972252794        8.7311616123       26.1385204694
  C        -7.6648580854       10.5163887392       25.2867992105
  C        -2.6234111506       16.3837397383       35.1979017784
  S         4.7890244853        9.2332357299       11.2693529505
  C         4.4950839416        6.4137668864       11.5163293544
  H         6.2152082052        9.3741155131       31.7068995875
  H         4.8741346108        8.3776457604       31.6136191749
  C         6.7448398090        7.4691620623       31.0686290204
  H        -7.4428815214       11.1634688797       24.4128465523
  H        -7.9152947494       11.2820173692       25.9851472450
  C        -8.9751796781        9.7311670959       25.0495884730
  H        -2.3180856977       17.4018280356       35.1749254393
  C        -3.0712479327       16.0178800202       36.3928647748
  H         5.2231504108        6.7853015555       10.8773756155
  H         4.8677954817        5.4247146051       11.8689671376
  C         3.1226665595        6.2754850276       10.7506693871
  H         7.5181267495        7.5554884705       31.8663337889
  H         7.4442533099        7.7013382185       30.2854733413
  C         6.2543102967        6.0550159673       30.9687412170
  H        -9.6139448306       10.1792533925       24.2647098430
  H        -8.7434105836        8.6976793247       24.7574288645
  C        -9.7559671538        9.6594714599       26.3587432154
  S        -3.4633475653       14.3604826732       36.9944032587
  C        -3.0587746028       17.0501904561       37.4510307047
  H         2.7233193530        7.2658188103       10.6232318333
  H         3.1462487082        5.9435785570        9.6718220740
  H         2.4209625616        5.6722176914       11.3552111069
  H         5.4455284301        5.7420715809       31.6216989165
  H         7.0952361626        5.3614206010       31.0996983201
  H         5.9776822929        5.9127715837       29.8989872958
  H       -10.2258405101       10.5884618962       26.6493522602
  H        -9.1115927221        9.4104510990       27.2271709221
  H       -10.5004155849        8.9224975973       26.3388107241
  C        -3.8210275157       15.1651173317       38.5728197514
  N        -3.6190690187       16.5229811631       38.5769811275
  O        -2.7287594471       18.2223409766       37.2824421243
  S        -4.8126350307       14.4114453933       39.9273913876
  C        -3.7955751455       17.2688075534       39.8097816812
  H        -4.1771611767       18.1938688131       39.4293731689
  H        -4.5766077854       16.8898184090       40.4084602960
  C        -2.5350636979       17.3945880871       40.7548491320
  H        -2.6470865529       16.7390532769       41.5733756303
  H        -1.6051978912       17.2586725168       40.2888457924
  H        -2.5767309559       18.4394453102       41.1467231592
