352
i=
  H         2.6239057619        1.8115602331       12.8498214591
  C         3.5583367032        2.3519589707       12.7184140487
  H         4.2105099307        1.5971797655       12.4207078798
  C         3.2878478183        3.3369233322       11.6140832098
  C         3.7224636026        3.0009566633       14.1408969624
  C         4.4603166643        3.4038923325       10.5564361323
  H         2.9361502661        4.3520535227       12.0838460193
  H         2.4932439267        3.0009277500       10.9558739466
  H         3.7431240917        2.3127295388       14.9830758759
  H         2.7936715228        3.5374761618       14.3579715820
  H         4.4988351712        3.6957911581       14.3603351122
  C         4.5043486411        2.1563407346        9.6697981886
  H         4.2728879813        4.1269179483        9.7808592616
  H         5.4114048551        3.6158129727       11.0460366544
  C         5.2352559255        2.3937179064        8.3297446063
  H         3.5697789807        1.5914626450        9.5280748118
  H         5.1139594783        1.3977385180       10.2023411064
  C         6.5983064668        3.1632483029        8.3907489268
  H         4.5701031695        2.9817803511        7.6146490026
  H         5.4066760776        1.3993654517        7.8823355593
  C         7.7477593858        2.3617107246        9.0442149552
  H         6.9409545789        3.3056310469        7.3751985886
  H         6.3786449215        4.1043389504        8.8096137183
  C         9.1100258582        3.0638705676        9.1279436038
  H         7.8118708667        1.4662290881        8.4289294247
  H         7.5723192175        1.9343565665        9.9785822955
  C         8.8177358779        4.4287204338        9.8145132023
  C         9.6150313871        3.7134344792        7.8674024262
  C        10.3041776080        2.4247334757        9.8751336474
  C         9.0665113185        5.4900213913        8.9718381558
  C         8.4654637644        4.8637448117       11.1261388255
  C         9.5580228817        5.1091843698        7.7439811026
  C        10.0846049986        3.2082654602        6.6772281511
  H         9.9758950368        2.0703396055       10.8671613522
  H        10.5387938501        1.5029266028        9.3194351166
  C        11.5612417299        3.2296351808       10.0059713589
  S         8.8017641876        7.0187019776        9.8123502181
  C         8.3873626198        6.2266103382       11.2443224277
  H         8.2079555902        4.1236395039       11.8555861010
  C        10.0041066376        5.7849302180        6.6332873681
  H        10.2356231352        2.1524069462        6.6936066763
  C        10.4779392076        3.9139699268        5.5441910646
  H        11.4023194865        4.1408221593       10.4896217154
  H        11.9614021937        3.5469086987        9.0443273684
  C        12.6692714826        2.6689087508       10.8497589677
  C         7.7881182514        6.9267784748       12.4200905825
  C        10.4896258761        5.2248570130        5.4994067261
  H         9.9434208195        6.8398209765        6.6399295728
  C        11.0235018517        3.5144143279        4.3346014368
  H        13.5661866688        3.3108670493       10.6811305697
  H        12.8652931378        1.6309244672       10.5734272085
  C        12.4099519037        2.8245202075       12.3476125014
  C         7.6298340394        8.3573296436       12.6897467870
  C         7.3554279478        5.9834166175       13.5244766785
  C        10.8694406826        5.9280853998        4.1883384361
  C        11.0704448684        4.6186818552        3.4826704496
  S        11.3450886896        2.0361316339        3.5804115602
  H        12.5459300205        3.8644649864       12.5680267999
  H        11.3981320010        2.6560097126       12.5099352198
  C        13.3666244594        1.9579327416       13.2854978153
  N         8.0077864401        9.3131402310       11.7305965755
  C         7.2506353413        8.8787630217       13.8997239241
  C         7.0127010772        6.4848145133       14.7808201115
  H         7.2650917517        4.9151553159       13.4859319028
  C        12.3002358398        6.5206747979        4.2561495189
  C         9.7954404631        6.7242726966        3.4073095412
  C        11.4853653020        4.1945012891        2.1716665815
  C        11.7150191011        2.8464078499        2.1157482236
  H        14.2276429291        2.4165054154       13.8002916729
  H        13.9196519366        1.4553559488       12.5506518371
  C        12.5681591943        1.0381201868       14.1754458540
  S         7.8978619499       10.7866722277       12.4243802316
  N         7.4446057630       10.2672180749       13.8979287536
  C         7.0252489063        8.0019947549       15.0136931858
  H         6.7282224594        5.7496962962       15.5623965008
  H        12.1810058451        7.4211861069        4.8595767324
  H        12.6815634484        6.7139101720        3.2006754197
  C        13.3798646809        5.6599937407        5.0346547937
  H         9.4619338894        7.5512226866        4.0377940691
  H        10.1010468490        7.1019187701        2.4394757747
  C         8.5198634518        5.8788589510        3.1011444003
  H        11.5355039347        4.9531958105        1.3755705644
  C        12.1082686977        2.2032266526        0.8354273532
  H        11.8702040291        0.4657223556       13.6114653468
  H        13.2372201806        0.3356056632       14.6626887915
  C        11.9116416576        1.9014266504       15.2731802068
  C         6.7713230689        8.7059125417       16.2108879287
  H        12.9827940921        5.5675069517        6.0157258101
  H        13.4815330563        4.6421416986        4.5772274345
  C        14.7100344902        6.3621619637        5.1685898982
  H         8.0068698191        5.6785200555        4.0468882839
  H         8.7025388247        4.9089833220        2.5796194234
  C         7.6123597328        6.7309186470        2.3528101986
  C        12.3162644319        0.8090146400        0.6166530188
  C        12.1990658059        2.9749003003       -0.4603446984
  H        10.8569091022        1.5947262860       15.2781465644
  H        11.9930406583        2.9292116788       14.9326829630
  C        12.5820423619        1.9388592279       16.5905705446
  H         6.9400756895        9.7770624300       16.2329780979
  C         6.4276962139        8.2930811940       17.4883431000
  H        14.4680698691        7.3229664354        5.7313746210
  H        15.1241114702        6.6215232672        4.2346468494
  C        15.6977311146        5.5273939594        6.0182274198
  H         7.5066066558        7.6956419955        2.8602314431
  H         7.9949094678        6.8571635422        1.3781912578
  C         6.2503532130        6.0822959568        2.3905550723
  N        12.1057246366       -0.1747025475        1.5352620615
  C        12.6154620999        0.2700493168       -0.6167370515
  C        12.5009528316        2.4670568439       -1.6788788490
  H        11.9771876187        4.0230689715       -0.4176071624
  H        13.6492843074        2.4164765263       16.6886193425
  H        12.5188306803        0.9502968569       16.9620391600
  H        11.8858846681        2.4344838746       17.1766394894
  S         6.1845141983        6.6688270343       17.9712644523
  C         6.5443624795        9.2640358666       18.5965167116
  H        15.2665133490        5.2536112551        6.9417044384
  H        15.9730349127        4.5575079471        5.5980386597
  C        16.9088399786        6.2958589733        6.3464965721
  H         5.7922751858        5.9835313569        3.3903434210
  H         6.3283056636        5.0412556080        2.0552324579
  C         5.2882985535        6.9034967625        1.5124253552
  S        12.5042657741       -1.6053289320        0.9121280610
  N        12.7080234152       -1.1440834593       -0.6344517910
  C        12.7076131513        1.0462664095       -1.8478450376
  H        12.6678320018        3.0573041962       -2.5604409525
  C         6.1229796536        7.2891536749       19.6265124994
  N         6.2271597896        8.6222073257       19.7231558004
  O         6.5775706048       10.5057289761       18.5074198695
  H        17.5261359033        6.6027853137        5.5206826968
  H        16.6392273381        7.0578539122        7.0358678209
  C        17.8276058108        5.4843156816        7.2681131745
  H         5.9978019603        7.3638789621        0.8592522439
  H         4.6516998345        6.3120859555        0.8896264752
  C         4.5932579011        8.0041437440        2.3132814440
  C        13.0137328915        0.3336969757       -3.0447525055
  S         5.4988943487        6.4324318442       20.9440615085
  C         6.3130075077        9.3447100855       21.0000812679
  H        17.2570840929        5.0865283005        8.0670356905
  H        18.1174371884        4.6090652409        6.7536281778
  C        19.0587779838        6.2701837779        7.7480027718
  H         5.2285041695        8.3652736730        3.1560348363
  H         3.7911994801        7.5314171126        2.8991532697
  C         3.9972593887        9.0735809865        1.5023368228
  H        12.8571141485       -0.7504326102       -3.0432216355
  C        13.6192524159        0.6779896320       -4.2553741482
  H         5.5971912357        8.9514305270       21.6659259914
  H         6.0690448254       10.4566225718       20.9305075421
  C         7.7700994473        9.3698512585       21.4680007531
  H        19.5171436454        5.7252672632        8.5673351745
  H        18.7126063601        7.2675445279        8.1697945480
  C        20.0914768944        6.3815024180        6.5982791738
  H         3.6278891388        8.6978452198        0.5657105095
  H         3.0217500448        9.4104503181        1.9382968729
  C         4.9940981786       10.2175181473        1.2551362085
  S        14.2951360727        2.2062533516       -4.5814012596
  C        13.6688141301       -0.3301927191       -5.2921886903
  H         8.0605321597        8.5894735716       22.2127871758
  H         7.9799788859       10.3581997802       21.8316765006
  H         8.4142790901        9.2563878204       20.6065879244
  H        20.3706645236        5.4126025875        6.2472308551
  H        19.6447531329        6.9783107385        5.7998900816
  H        21.0646569768        6.7961949232        6.8411959181
  H         4.8773692321       10.9783010861        2.0415412373
  H         5.9904168708        9.8502444501        1.2067835623
  H         4.7306768228       10.6388246829        0.2833240503
  C        14.6610898905        1.5037717016       -6.1748684947
  N        14.2663398516        0.1891476825       -6.3293203568
  O        13.1916201510       -1.4693391373       -5.1690078142
  S        15.2762612957        2.3627068705       -7.5394242302
  C        14.4462205904       -0.5606090794       -7.5816459499
  H        14.5345708903       -1.5893638192       -7.4800426257
  H        15.2598553394       -0.3475958595       -8.2734887497
  C        13.2753261361       -0.3160744461       -8.5790193952
  H        13.4858526138        0.7696507469       -8.9311767587
  H        12.3300692703       -0.2853454769       -8.1872462863
  H        13.3724555542       -0.8985081451       -9.5856013952
  H        -2.7780922251       15.3864209101       15.5872594306
  C        -3.1403327265       14.7772115197       16.4890854120
  H        -4.1028084722       15.1772614413       16.8003520799
  C        -2.1296228303       14.8428130386       17.6706488059
  C        -3.3906219393       13.3694803196       16.0233358976
  C        -2.6588952799       14.0507373454       18.8608364616
  H        -1.2492104600       14.3822900282       17.2258902665
  H        -2.0093815833       15.8541321606       17.8715067177
  H        -2.6440625862       12.6854275888       16.4483539604
  H        -4.3768146869       13.0903927249       16.4015075106
  H        -3.3507693445       13.1706961350       14.9883274515
  C        -1.4139134583       13.7005607530       19.7625783997
  H        -3.2545330540       13.1624368581       18.6082795269
  H        -3.2960578621       14.6796576472       19.4514866961
  C        -1.9194713456       13.6956443380       21.1629704058
  H        -1.1127849187       12.6895700603       19.4266593042
  H        -0.5613581144       14.3211460413       19.5733775075
  C        -0.8846143336       13.1675191251       22.2254244714
  H        -2.9296560662       13.2905056988       21.2276565356
  H        -2.1504607433       14.7336123827       21.3780926491
  C         0.3585300432       14.0978467007       22.5143694271
  H        -1.3575749182       12.8941519724       23.1253665181
  H        -0.5717416671       12.1583087940       21.9377659230
  C         1.4263679661       13.3453047968       23.3061745827
  H         0.7479351822       14.5980508647       21.5916475847
  H         0.0233545579       14.8894207910       23.1157737962
  C         1.6850204969       11.9395239987       22.6384472865
  C         0.8400546921       12.6426821385       24.5836147145
  C         2.7079410546       14.3032327658       23.6994152613
  C         1.3533090757       10.8546052233       23.3784426931
  C         2.2408887282       11.5672946486       21.4026379887
  C         0.8504599675       11.2943883447       24.6055386432
  C         0.4046128662       13.2110106015       25.7406021413
  H         2.8626993718       14.9815255415       22.8399525681
  H         2.4146238652       14.8237490923       24.6090894855
  C         3.9390636029       13.5114087025       23.9900365987
  S         1.7067174705        9.3155702078       22.5555976067
  C         2.2037602995       10.2108863622       21.1642427180
  H         2.5229828041       12.3361206331       20.7430858686
  C         0.4521535196       10.6426561592       25.7590292232
  H         0.3463094295       14.2637438153       25.7266870216
  C         0.0079141423       12.5511432195       26.8331709154
  H         3.9741428586       12.8636560526       23.1138152867
  H         3.7818146805       12.9521526563       24.9529383333
  C         5.1074443383       14.4922936763       23.8261817385
  C         2.6040629999        9.5151194229       19.8585559311
  C        -0.0304404636       11.2303182065       26.9177979509
  H         0.4863153127        9.5579931317       25.8289532764
  C        -0.4227247296       12.9227811130       28.1198684642
  H         5.9804662028       14.1314890473       24.3942641834
  H         4.7488478617       15.3598148487       24.2330897864
  C         5.6064742908       14.8517981646       22.4207153674
  C         2.5483089537        8.1062922905       19.5656134202
  C         3.1139479897       10.3686647202       18.7798423660
  C        -0.4267041680       10.4752202867       28.1897735071
  C        -0.5578326663       11.7796309014       28.9607691758
  S        -0.6694385000       14.3736496694       28.8993963511
  H         6.3663305437       15.6007023474       22.3656175712
  H         4.7746214898       15.0744925802       21.7362207835
  C         6.3601624162       13.6859022074       21.7692228562
  N         2.2357540455        7.0560604617       20.4988742964
  C         2.7786290530        7.5341342130       18.2599908736
  C         3.3244490811        9.8358710125       17.5179018156
  H         3.3904027504       11.3774116095       19.0838384152
  C         0.6215689899        9.6070105413       28.7563467250
  C        -1.7361356463        9.6193494541       27.9557865878
  C        -0.9036298299       12.1145949941       30.2960468784
  C        -0.9592023878       13.4951607693       30.3762424091
  H         7.3964466919       13.7565816894       22.0615517887
  H         5.9007986991       12.7026565024       22.1266068644
  C         6.2400036743       13.6607786220       20.2512334569
  S         2.0176493643        5.6740342825       19.6550553521
  N         2.4655853388        6.1694128752       18.2345702777
  C         3.0708007405        8.4121551687       17.1733957796
  H         3.7060280665       10.5366253088       16.7445708617
  H         0.8946864359        8.7133364110       28.1558126158
  H         0.1379555953        9.2593364845       29.7041774215
  C         1.8324785117       10.2991845007       29.2468347582
  H        -1.6598645531        8.9058681383       27.1451064224
  H        -1.9326751964        9.1670497792       28.8102765844
  C        -2.8922781628       10.5465046430       27.5085359123
  H        -1.0519480167       11.2731665305       30.9838561496
  C        -1.1715615193       14.2472594052       31.7390147905
  H         5.7111657727       14.5526941788       19.8441589439
  H         5.6030592556       12.8070718630       19.9301957011
  C         7.5484776404       13.7394532590       19.4956217414
  C         3.3464655163        7.8161602385       15.8752183378
  H         2.2747921908       11.0349487189       28.6052742353
  H         1.5096024991       10.8147120420       30.2126822683
  C         2.8873809916        9.2634839886       29.6844321660
  H        -2.5515036241       11.1522370542       26.6636989017
  H        -3.4103640817       11.1012443909       28.2745941741
  C        -4.0597795485        9.6106795531       26.9483249073
  C        -1.3614346104       15.6597664129       31.8875138574
  C        -1.2544249830       13.4563042746       33.0107890417
  H         8.2268468509       14.4602084848       20.0198325217
  H         8.0213157911       12.7591261793       19.6361599132
  C         7.2400205111       14.0216960943       18.0352689195
  H         3.2796771120        6.7689482593       15.9574558377
  C         3.6824520616        8.3195450080       14.6597582367
  H         3.0741787805        8.5249013038       28.9290952450
  H         2.5899488530        8.7464326579       30.5953779733
  C         4.2444613125       10.0595422538       29.9735264998
  H        -3.7551515225        9.1992330002       25.9692369165
  H        -4.2483422913        8.6680172026       27.4092467043
  C        -5.3981705566       10.3320184339       27.0015313948
  N        -1.3180740913       16.4994089909       30.7632311416
  C        -1.6677010060       16.3070121402       33.0765160856
  C        -1.5318123598       14.0983216016       34.2369318148
  H        -1.2365485143       12.3858493593       33.0270511405
  H         7.3299154348       15.0753187494       17.9085357804
  H         7.9328923728       13.6864687531       17.2790716451
  H         6.1730206058       13.8687289830       17.8235855321
  S         3.8242092391        9.9828723075       14.1820411022
  C         3.9728217461        7.2849735839       13.6436934959
  H         4.3589528213       10.9762871396       29.3875975684
  H         4.3151092964       10.4457338392       30.9956897624
  C         5.4084881179        9.1743121130       29.6867478401
  H        -5.3046010612       11.3349181548       26.6516980151
  H        -5.6450187334       10.4948363042       28.0576357293
  C        -6.4688256330        9.5618163525       26.2182468589
  S        -1.4144381707       17.9847948614       31.3650024312
  N        -1.8876044739       17.6688780655       32.8861731855
  C        -1.8855749106       15.5837474261       34.2629467483
  H        -1.5910293270       13.4614506024       35.1189543440
  C         4.1535143181        9.2345326011       12.5640140879
  N         4.2639193875        7.8957673700       12.4547883748
  O         3.9978453790        6.1015275664       13.8794574662
  H         6.3431861707        9.7200066994       29.6100042749
  H         5.3584330899        8.7470539900       28.6534354592
  C         5.7794143283        8.1793314836       30.8512659520
  H        -6.0890608826        9.2001290679       25.2660756217
  H        -6.8756158386        8.6870117298       26.7571706668
  C        -7.4700026049       10.6333900864       25.7675411509
  C        -2.2278743175       16.3155939207       35.4284137881
  S         4.6052927369       10.2362228223       11.2231111321
  C         4.5558360869        7.2110966157       11.2097575438
  H         6.4118519567        8.6516781428       31.6277384722
  H         4.8924088397        7.7983277424       31.3804494868
  C         6.3581324706        6.9247034026       30.2258424995
  H        -6.9781750369       11.3826097372       25.1367118577
  H        -7.7897174745       11.3292589951       26.5761663632
  C        -8.6532000712        9.9994858461       25.0381028842
  H        -2.2346515324       17.4282979185       35.3228290260
  C        -2.6835425370       15.8859136356       36.6192742390
  H         5.3068089981        7.7698078837       10.6248649923
  H         5.0701967922        6.2884111075       11.3601813658
  C         3.2931195119        7.1793936902       10.3261791529
  H         7.3996387952        6.9964374852       29.9230117247
  H         5.7450524951        6.7103643485       29.3407256509
  C         6.2061103602        5.8604678682       31.2872302502
  H        -8.8371553348       10.6359659253       24.1924214946
  H        -8.3511984577        8.9888034056       24.7892988809
  C        -9.8428049242        9.9134649686       25.9792724380
  S        -2.9514753294       14.2709377825       37.1725825856
  C        -3.0555231353       16.9547775134       37.5929596411
  H         3.6165189083        7.7157480083        9.4081739491
  H         3.0247977685        6.1847772385        9.9815073728
  H         2.3993110331        7.5488446220       10.8406805419
  H         5.2257849589        5.2943089076       31.2599725853
  H         6.4095080352        6.1526760489       32.3246142883
  H         7.0003111722        5.0917285764       31.0239819463
  H        -9.6673329598        9.2507788213       26.8481531596
  H       -10.6556173804        9.4694577331       25.4164646781
  H       -10.1723245489       10.8281634423       26.3254180953
  C        -3.3753056431       15.0243055988       38.7147731416
  N        -3.4604780970       16.3732717325       38.7352407408
  O        -2.8493254623       18.1467238986       37.4654627703
  S        -3.7720782364       14.0672395738       40.1445764285
  C        -3.7314163904       17.1736952536       39.8864958743
  H        -4.1426607515       18.1769795016       39.5875826470
  H        -4.5174816617       16.6885480893       40.4665630807
  C        -2.5295202470       17.2663547713       40.8684343526
  H        -1.8237587906       18.0058440942       40.6602100073
  H        -2.9204988063       17.5323389143       41.8526728702
  H        -1.9773688296       16.3786276755       40.8883607807
