352
i=
  H         2.8853813395        0.8626965396       13.7877485989
  C         3.6561324399        1.3348315777       13.2416640537
  H         4.2357752846        0.4478734252       12.9387356328
  C         3.1346254635        1.9793594549       11.9742097576
  C         4.5723685288        2.2305370630       14.1437010073
  C         4.2377171359        2.1865325544       10.9588418352
  H         2.6359040526        2.9902966397       12.1908962122
  H         2.3745438582        1.2774887749       11.5890873457
  H         4.8498219838        1.7391975412       15.0438447637
  H         4.0552101193        3.0841063896       14.4786037843
  H         5.5687004111        2.4640692945       13.7167100268
  C         4.6338956346        0.8685279896       10.1777773972
  H         3.9531003619        2.8953852710       10.2370684993
  H         5.0829833797        2.5482492679       11.5378841280
  C         5.1934265447        1.1563000000        8.7734631972
  H         3.7250521574        0.2633092508       10.0443098317
  H         5.4207867290        0.4524876870       10.7202069478
  C         6.4292011804        2.0237250978        8.6379384708
  H         4.3460678602        1.4386392211        8.1553878694
  H         5.4522232325        0.2094722369        8.3253897319
  C         7.8111782347        1.4444900343        9.0512235103
  H         6.4795435875        2.4115885863        7.5753446874
  H         6.3569093146        2.7944529559        9.4006532460
  C         9.0260894933        2.3844362819        9.1865729162
  H         8.1311196270        0.7367077560        8.3138808657
  H         7.7868221499        0.7850646329        9.9649788072
  C         8.6337317320        3.6981171617        9.8029709790
  C         9.3557700393        3.0568164455        7.9078399989
  C        10.2298968173        1.7022591386        9.8291122499
  C         8.7265313186        4.7640675682        8.9703624497
  C         8.1231122276        4.0772570919       11.0418046429
  C         9.1369479431        4.3656902980        7.7109445690
  C         9.9211730531        2.5340231414        6.7168311875
  H         9.8045624912        1.3326522875       10.7741339040
  H        10.5329055102        0.8324616639        9.2636169861
  C        11.3698445135        2.7055877284       10.1139336925
  S         8.4843590570        6.2642594426        9.7574529749
  C         8.0900457680        5.4611028279       11.2236711581
  H         7.9980831193        3.3426063035       11.8060527853
  C         9.4167835065        4.9894010682        6.5217218413
  H        10.1578840628        1.4666323915        6.7346691346
  C        10.1972611775        3.0989519295        5.5078181037
  H        10.9268308188        3.5413988032       10.5683529320
  H        11.7506352533        3.0285621762        9.1501803755
  C        12.5377527990        2.3280456134       11.0461238146
  C         7.7410572556        6.0904973570       12.4987597085
  C         9.9698414897        4.4077102799        5.3732517030
  H         9.2867440357        6.0572784099        6.5633819494
  C        10.6061384184        2.8006324285        4.2388685691
  H        13.1398884236        3.2490556933       11.1626314224
  H        13.2419888399        1.7082777585       10.5704553693
  C        12.0704019330        1.7043384623       12.3878877193
  C         7.7356126205        7.5128801423       12.7371705958
  C         7.2281566817        5.3272058988       13.6590856373
  C        10.3069572349        5.1633032181        4.1249000596
  C        10.7200935199        3.8856458015        3.4400799508
  S        10.8734261202        1.3667328521        3.4293027420
  H        11.2563121903        2.1716408210       12.9251230662
  H        11.7013516991        0.6944769388       12.1392729539
  C        13.2768567558        1.6724050880       13.3537651418
  N         8.0779501069        8.4760377787       11.8292565817
  C         7.5207903531        8.0774453309       14.0057739189
  C         6.8367475854        5.9152491574       14.8548110067
  H         7.0333684322        4.2951915498       13.5203124533
  C        11.5130996559        6.0738951781        4.4326465966
  C         9.0795488491        5.7858927135        3.5360912356
  C        10.9226222473        3.5739602630        2.0828096115
  C        11.1373801553        2.2403094456        1.9496316688
  H        13.5536371415        2.6724975563       13.7173812924
  H        14.2687463809        1.2385227066       12.9516103596
  C        12.9027671031        0.9475505338       14.6674440142
  S         8.1979232975        9.9149308364       12.5997712396
  N         7.7545694195        9.4533993807       14.0627520332
  C         7.0747247351        7.3189448303       15.1151476828
  H         6.5139411409        5.2475064831       15.5867654628
  H        11.1879190894        7.0518905772        4.8527900454
  H        11.8852270617        6.2246187900        3.4151252306
  C        12.7532063391        5.5135613919        5.1815922109
  H         8.8079948949        6.5855731399        4.2011054767
  H         9.3999639658        6.1687815954        2.5611558829
  C         7.9307676175        4.8482951478        3.3321955826
  H        11.0250493230        4.3400593837        1.3494226362
  C        11.6226656412        1.5746458708        0.7084008847
  H        11.9679210514        0.5277955322       14.5667842123
  H        13.6347910485        0.1932042528       14.8466043171
  C        12.9167179893        1.8312855007       15.9166704334
  C         6.9949588544        7.9644371365       16.4307450238
  H        12.4942435083        5.1406975213        6.1681525611
  H        13.1564181179        4.6890492683        4.6640239853
  C        14.0381166569        6.4782416855        5.1787135763
  H         7.6387015698        4.5613308989        4.3792564326
  H         8.1959656774        3.8852873697        2.8136069460
  C         6.8364885062        5.6912265872        2.6572108870
  C        11.7940353895        0.1751461736        0.6402421159
  C        11.8246140599        2.3828573869       -0.5288502152
  H        12.2779734886        2.6746643238       15.7535032088
  H        13.9316732102        2.2460803507       16.0780882440
  C        12.7703743257        0.9905824969       17.1471712379
  H         6.9975259857        9.0122032255       16.3442735478
  C         6.7806674716        7.4996703732       17.7074133105
  H        13.7303294342        7.5634429400        5.4047499130
  H        14.6356715217        6.6241744386        4.2070067809
  C        15.0567792373        6.0051889084        6.2317656486
  H         6.5575211488        6.5123075879        3.3535996834
  H         7.2463020248        6.1870473838        1.8311114231
  C         5.5918499619        4.9390219119        2.2427395270
  N        11.5829873242       -0.6434272727        1.6782682110
  C        12.1876711238       -0.4464713013       -0.4852400637
  C        12.2411153140        1.7079852245       -1.6836671296
  H        11.7719554045        3.4361448689       -0.6045683380
  H        13.0699062170        1.5358307491       18.0497042862
  H        13.4046056146        0.0776557665       17.0675584155
  H        11.7094675859        0.7628933107       17.2190157407
  S         6.6253893757        5.8270834364       18.1847834806
  C         6.7124837878        8.4812313109       18.7793486181
  H        14.9587962616        6.8205020856        6.9575469884
  H        14.6425698883        5.0833563790        6.6446015866
  C        16.5022105638        5.8689615955        5.7163485407
  H         5.1739184781        4.4890576911        3.1221207437
  H         5.8539432327        4.1702561139        1.6143527586
  C         4.4291721884        5.8099544482        1.6270173602
  S        11.7641889000       -2.1570784665        1.0782096559
  N        12.3385480945       -1.7866918341       -0.3739059769
  C        12.4078456976        0.2273649231       -1.7208624461
  H        12.5142051957        2.1446846816       -2.5226937977
  C         6.2451966690        6.5240037380       19.8111355988
  N         6.3771779735        7.8674194480       19.9086697124
  O         6.9378946386        9.6989018401       18.6428876997
  H        16.4971765906        4.9614649457        5.2152306744
  H        16.8611325226        6.5939759384        4.9996034398
  C        17.5368084548        5.7809712880        6.8421117214
  H         4.6234706835        6.2375667695        0.6064479778
  H         3.5214975402        5.1814551059        1.5525760025
  C         3.9517580000        6.9168660600        2.4924637872
  C        12.8746647118       -0.4954094574       -2.8680992787
  S         5.7786254169        5.6239138849       21.2515983645
  C         6.3790814542        8.6152602183       21.1634343250
  H        17.3201236387        6.5943428591        7.5288015540
  H        17.4027248405        4.8762855580        7.4438676110
  C        19.0106031400        5.8775514997        6.3063819951
  H         4.3761797173        6.7654939711        3.4521620361
  H         2.8589981334        6.9760282810        2.5291758036
  C         4.5634499376        8.2844799907        2.1210890612
  H        12.5539916360       -1.5132478814       -2.7943615089
  C        13.5081095580       -0.1171798970       -4.0533971309
  H         5.7975788955        8.1916392253       21.9574247567
  H         5.8816881616        9.5496394945       20.9141385221
  C         7.8248500139        8.7602215081       21.6395661952
  H        19.1500742178        6.8925840200        5.8248307350
  H        19.2372721146        5.1126462041        5.4970947982
  C        20.0290008130        5.7644439864        7.4420187280
  H         4.3127132867        8.9977478585        2.8775949238
  H         5.6104405669        8.2379348623        1.9412158317
  C         3.8902161649        8.8744485458        0.8503677218
  S        14.1491857717        1.4442543089       -4.4938835505
  C        13.4484956816       -1.1085644002       -5.1794425779
  H         8.0725661534        7.8795229918       22.2416890259
  H         7.8886213478        9.5700917389       22.3206896067
  H         8.6115553238        8.9538770933       20.9129830417
  H        20.3914908976        4.7713689562        7.3686298908
  H        20.7735436719        6.5953673086        7.3978963838
  H        19.5727482909        5.9704325187        8.4008612385
  H         4.1795475987        8.3954488324       -0.0913478287
  H         2.8208522442        8.7349252767        0.9727592210
  H         4.0724642080        9.9847712752        0.8552461281
  C        14.3516136705        0.7957160753       -6.0659600837
  N        13.9970133690       -0.4961977483       -6.2414395754
  O        13.1149683327       -2.2680220559       -4.9657263582
  S        15.2710577666        1.5894072481       -7.4282320561
  C        14.0371739030       -1.2316963041       -7.5474607554
  H        13.7794053470       -2.2054202147       -7.3665391890
  H        15.0457239664       -1.2132115953       -7.9433266213
  C        13.0710127024       -0.7190899243       -8.6523184856
  H        13.0847597037        0.3150218981       -8.8669544311
  H        12.0290867495       -0.9416292968       -8.4195581960
  H        13.4084211344       -1.2197760088       -9.5783658572
  H        -2.9369642996       15.1620658888       16.0902570125
  C        -3.1560591285       14.0670586544       16.2888093502
  H        -4.1947676390       13.9634690645       16.5316966502
  C        -2.2675294629       13.5705521846       17.3766310345
  C        -2.9248185179       13.4459124883       14.9491849545
  C        -2.5892724992       14.2353883991       18.6843984074
  H        -2.2719739438       12.4483182599       17.4556769516
  H        -1.2790571260       13.8436296330       17.0451979587
  H        -3.0077461298       12.3427505613       14.8829988099
  H        -3.6835613490       13.9070833856       14.3163797878
  H        -1.9787179804       13.7854685050       14.5194591639
  C        -1.6118956594       13.8205141578       19.8372928404
  H        -3.6591727837       14.0441704693       18.9544334840
  H        -2.5025176298       15.3009911656       18.3905850220
  C        -2.2060277986       13.5762545986       21.1724050105
  H        -1.1340882295       12.9420432450       19.4453517740
  H        -0.7725458353       14.5047530887       19.8272783002
  C        -1.2462627089       12.8593340989       22.0726219642
  H        -3.1429160445       13.0597749582       21.1046668602
  H        -2.4999972868       14.5066390036       21.5399903852
  C         0.0177085895       13.7102021744       22.5231177766
  H        -1.7260172146       12.4459529775       23.0185262987
  H        -0.9600144168       12.0042586207       21.5078032299
  C         1.1068135890       13.0158568088       23.3502343396
  H         0.4465010210       14.1633356743       21.6980042824
  H        -0.3881049207       14.4589872151       23.2210694869
  C         1.4099166309       11.6978475598       22.6268151197
  C         0.5897832067       12.2921177540       24.5439887820
  C         2.2780405026       13.9550171549       23.6714990635
  C         1.1192670570       10.6058367269       23.4272855256
  C         2.0305830028       11.1787853309       21.4497312961
  C         0.6339211949       10.9848000144       24.6223915585
  C         0.0850281439       12.9954297055       25.6403789068
  H         2.5899445015       14.5678827848       22.8183253364
  H         1.9854833639       14.7622783733       24.3393728003
  C         3.5546725461       13.2720548516       24.2114760021
  S         1.5481167214        9.0329321556       22.7515070729
  C         2.1349101607        9.8052827432       21.3340816927
  H         2.3584409434       11.9078285939       20.6868327841
  C         0.1633155139       10.3647737424       25.6877080684
  H         0.0888210268       14.0664177650       25.6703100334
  C        -0.3049242625       12.3414603879       26.7611736542
  H         3.8823388702       12.5032745490       23.5249321681
  H         3.4026760608       12.7282437999       25.0963181284
  C         4.6715587733       14.2416942542       24.6268637068
  C         2.8350266828        9.0293398728       20.2604567049
  C        -0.2779657866       10.9924491424       26.8626215150
  H         0.2415975660        9.3454068952       25.7634728081
  C        -0.7141888266       12.8110850885       28.0143407441
  H         5.3945257543       13.8219256074       25.3305553612
  H         4.1933169165       14.9425338069       25.3122386565
  C         5.4333683554       14.7987139954       23.4629174361
  C         2.6934370408        7.6250216378       20.0705080079
  C         3.4071476420        9.8058984338       19.1399432917
  C        -0.6798197536       10.3209958116       28.0844204443
  C        -0.9342312944       11.7054699202       28.8684774876
  S        -1.1040799150       14.2603296284       28.8347085707
  H         6.0220010616       15.6105140402       23.8428145962
  H         4.7254042120       15.3119059733       22.8188713942
  C         6.2375642330       13.8003121357       22.6684261720
  N         2.0892311097        6.6907930316       21.0108802528
  C         2.9172553287        7.0605723890       18.8250691963
  C         3.7348437569        9.2447003651       17.9117813016
  H         3.5914428296       10.8403824320       19.2774061772
  C         0.4470692788        9.5172795610       28.7687099846
  C        -1.9915775455        9.4702015784       27.8755724050
  C        -1.2339598739       12.0881859769       30.1868507406
  C        -1.3716527957       13.4283587738       30.3303437740
  H         7.3242703792       14.0241474755       22.5081883550
  H         6.3449791354       12.8377958944       23.2046433856
  C         5.6054676190       13.5114323319       21.3056148375
  S         1.9170729991        5.2582730602       20.1734582555
  N         2.6001091356        5.7147444477       18.7756855104
  C         3.3508810889        7.7873984185       17.6750752781
  H         4.1148484849        9.8698386337       17.0539111495
  H         0.6006278141        8.6607062113       28.0997485255
  H         0.0923769727        9.0564260941       29.6745002040
  C         1.7699070861       10.2931787804       29.1457222440
  H        -1.6762063750        8.4733750306       27.5113355054
  H        -2.2640942907        8.9592029538       28.7973649282
  C        -3.1169218236       10.1328010424       27.1177275200
  H        -1.3314634988       11.3197758242       30.9286082627
  C        -1.6424542859       14.1748082186       31.5789510162
  H         5.5404567704       14.2350653671       20.5926414006
  H         4.5650310851       13.1953343072       21.5595395925
  C         6.3762195044       12.3082386573       20.6746618564
  C         3.4369906305        7.1110460395       16.3683212177
  H         2.1849959398       10.7240933648       28.2663117615
  H         1.6438693474       11.1687446979       29.6203470954
  C         2.8674333385        9.4962499337       29.8241149273
  H        -2.9230993696       10.2633813329       26.0738047174
  H        -3.3493840814       11.1426847180       27.4649149451
  C        -4.4604210527        9.4276577637       27.3018369226
  C        -1.6175125940       15.5696987112       31.7947419628
  C        -1.7603063048       13.3744093926       32.8159302952
  H         6.5399308129       11.5311051420       21.4775206562
  H         5.8254985369       11.7420678564       19.9859259114
  C         7.7182916042       12.6327458226       20.0637376037
  H         3.2768646540        6.0431653262       16.4724573838
  C         3.5424623966        7.5299866956       15.0497746321
  H         3.1183934463        8.7538989791       29.0771931063
  H         2.6372130245        8.8326693083       30.6715563971
  C         3.9860515789       10.2984841224       30.4308714057
  H        -4.6097658780        8.6600266237       26.5679674636
  H        -4.5215492937        8.9124330096       28.2644593406
  C        -5.5482247681       10.5088759105       27.3018627922
  N        -1.3405486281       16.4862543309       30.7997843031
  C        -1.7364278922       16.1705832111       33.0103894791
  C        -1.8195182713       13.9180527255       34.0451156348
  H        -1.6263343715       12.3201789121       32.7747219264
  H         8.2308930623       13.2675196064       20.7689387178
  H         8.3720312178       11.7973560045       19.9480610277
  H         7.5794313203       13.1995977414       19.1827701014
  S         3.9452182844        9.1198982232       14.4513776353
  C         3.4165165356        6.4849864405       14.0100214894
  H         3.9046760167       11.3059232856       30.0792154476
  H         3.5752598475       10.4086102670       31.4210733140
  C         5.4073946531        9.6385045899       30.2719275684
  H        -5.3469374446       11.3569842803       26.6413248053
  H        -5.7733682476       11.0209953159       28.2736551345
  C        -6.8817013759        9.8856248672       26.9135296817
  S        -1.3582037564       17.9882130506       31.4145598732
  N        -1.6324968567       17.4938912453       32.9527257228
  C        -2.0226586523       15.3877383964       34.1670390457
  H        -1.7483940934       13.3235899465       34.9038690561
  C         4.1359779267        8.3390034692       12.8537189735
  N         3.8304516609        7.0144764188       12.8070052536
  O         3.0559312703        5.3604355713       14.2366019295
  H         6.0705871301       10.3138431160       30.7971774648
  H         5.8058939507        9.6087323052       29.2530469092
  C         5.4703966615        8.3068923925       31.0242179061
  H        -6.7167031118        9.0862214895       26.2381523081
  H        -7.3929532617        9.4372336496       27.7494165861
  C        -7.8685277289       10.9467243067       26.3104132033
  C        -2.2412971768       16.1353332046       35.3736656760
  S         4.7587154159        9.0252048225       11.3142612350
  C         3.7221197763        6.2123970094       11.6142067614
  H         5.9676617502        8.3118335624       31.9568939205
  H         4.4871292502        7.9119344164       31.3578503002
  C         6.2183050478        7.1494324445       30.2223169607
  H        -7.3587725890       11.8319766178       25.8382502454
  H        -8.4666371663       11.3353947068       27.1602726342
  C        -8.8647271240       10.3821839085       25.3469902723
  H        -2.0155371278       17.1457964112       35.3107062449
  C        -2.7163060609       15.7379107912       36.6000889878
  H         4.5903398502        6.3172553445       10.9497869889
  H         3.8202916856        5.1724710176       11.9051626741
  C         2.3053692889        6.3026462899       11.0480689891
  H         7.1091233532        7.6398268109       29.8293947452
  H         5.7054143717        6.9047450829       29.2853470372
  C         6.6271538988        5.8327935587       30.8883426986
  H        -9.2578579386       11.1551019697       24.6458989508
  H        -8.4449266919        9.6074482144       24.7199034840
  C       -10.2165132701        9.8997556233       26.0039264325
  S        -3.3626767543       14.1881687883       36.9547439476
  C        -2.9322647912       16.7328971382       37.6488051097
  H         2.0500149637        7.2972768462       10.6584241102
  H         2.2743681306        5.5647409871       10.2525517148
  H         1.4890367708        6.0758087774       11.7358535563
  H         5.7056265290        5.2472670229       31.2485692195
  H         7.2596660857        6.1340746987       31.7358695009
  H         7.1605402614        5.2203406838       30.1709593210
  H       -10.5707264061        9.2002262054       25.2086468783
  H       -10.8797553104       10.5547389757       26.5107855132
  H       -10.0181300534        9.2985157073       26.8830597841
  C        -3.8154728454       14.8854916674       38.5597878415
  N        -3.5628191542       16.2404750121       38.6991658657
  O        -2.5432652505       17.8706326173       37.5551893159
  S        -4.7723577534       14.0814127699       39.8648657482
  C        -3.8024010005       17.0679454764       39.9239200702
  H        -4.2202940529       18.0704065215       39.7212962248
  H        -4.6408158151       16.7206171900       40.5613412844
  C        -2.5562347969       17.1923063742       40.7700641508
  H        -2.6996864636       18.0432877161       41.4269382357
  H        -2.4867649705       16.3020428059       41.3916470604
  H        -1.6509307795       17.2039515668       40.1747400623
