352
i=
  H         3.9836045342        1.5576239920       13.2310301799
  C         3.5853885802        2.5573910424       13.1891162673
  H         4.4425879964        3.1843088906       13.1349201967
  C         2.7584944409        2.6246985578       11.8693895307
  C         2.7849884303        2.9302686996       14.4600153984
  C         3.6166483863        2.6633772514       10.6032965151
  H         2.1573135603        3.5059577035       11.8722666770
  H         2.0350088121        1.7675535744       11.9150125265
  H         3.5203738153        3.5956624436       14.9109984695
  H         2.7959504543        2.0562394845       15.1447807139
  H         1.8455189571        3.4475709750       14.3026685566
  C         4.4468503862        1.4713511930       10.2602299435
  H         3.1337032204        3.0875891322        9.6915614878
  H         4.3347178480        3.5634977252       10.7372802279
  C         5.1799573178        1.5287552693        8.8733408307
  H         3.7819158312        0.5954800049       10.2879283700
  H         5.0981893981        1.3217901400       11.1153679910
  C         6.4765560513        2.4755726111        8.9629122676
  H         4.5450065164        1.9215938279        8.1098286827
  H         5.3351196040        0.4971515804        8.7191824971
  C         7.6757935771        1.6929615228        9.4122439606
  H         6.7827378996        2.8900259075        8.0427380894
  H         6.2400279690        3.3684377812        9.5369962212
  C         8.9992066688        2.5124415212        9.5233276611
  H         7.8639505718        0.9699996175        8.6548282812
  H         7.3869778995        1.1769477121       10.3709699806
  C         8.6239300884        3.8886699081       10.1378259219
  C         9.5205863326        3.1473852821        8.2087321701
  C        10.1158108761        1.7872399709       10.3192418798
  C         8.9634609053        4.9623243046        9.2829685721
  C         8.0418853812        4.3856588950       11.2963375088
  C         9.4675093515        4.4577122009        8.1113474055
  C        10.1853960782        2.5307685147        7.1878838638
  H         9.6936170942        1.3591513660       11.2455721883
  H        10.4317647356        0.8869853229        9.8077819184
  C        11.3487599076        2.6234419505       10.6062137377
  S         8.6661749724        6.5419685653       10.0070555828
  C         7.8878950508        5.7533621177       11.3433952768
  H         7.7126176786        3.6739261636       12.0063480091
  C         9.7857544886        5.1009219668        6.9772804564
  H        10.2572131188        1.4495918314        7.2604113056
  C        10.5684381796        3.1638335139        6.0283590271
  H        11.1676089268        3.3289442935       11.3478191324
  H        11.6539798199        3.3925389707        9.8748870304
  C        12.5580792845        1.8410895144       11.0622274558
  C         7.5167953244        6.5272200767       12.6052598278
  C        10.4430719423        4.4934709175        5.9043778162
  H         9.6902025542        6.1542126637        6.9645559346
  C        11.0910083744        2.7907417028        4.8420691342
  H        13.4825587661        2.3231501132       10.8179417366
  H        12.6922374664        0.8985180420       10.6360836970
  C        12.3772149134        1.5446521861       12.5546176465
  C         7.6658566178        7.9057726670       12.8446346390
  C         7.0410406590        5.7032609898       13.7517237556
  C        10.8967811115        5.1883528406        4.6882806260
  C        11.2414510087        3.8618750609        3.9889045374
  S        11.3525504449        1.3657689636        4.0849113411
  H        11.4690348275        0.9729257860       12.7966693655
  H        13.0008042724        0.7140412113       12.8622575174
  C        12.6046422351        2.7085772508       13.5377993863
  N         8.0585102918        8.9239983565       11.9505185073
  C         7.3163067071        8.4245752912       14.0843133994
  C         6.6480754364        6.2085605078       15.0009588534
  H         6.9280414117        4.6511818529       13.6291801190
  C        12.0509458561        6.1098800873        5.0478043345
  C         9.8432502461        5.9900406868        3.9185082419
  C        11.7914352464        3.5015844955        2.7554286973
  C        11.7919813528        2.1776285199        2.6110315657
  H        12.4468475385        3.7054359435       13.0204103085
  H        13.6569496082        2.6984185033       13.7391459133
  C        11.7154827045        2.5067611602       14.7500326054
  S         8.0807671268       10.3095572721       12.7815105004
  N         7.5196494263        9.8259772128       14.1301836036
  C         6.8542031879        7.7291736998       15.1720219210
  H         6.4054115256        5.5001891965       15.8245710339
  H        11.7053171742        6.9235291113        5.6883442347
  H        12.3121556311        6.6632556729        4.1946571520
  C        13.3438592429        5.2708555473        5.5326975505
  H         9.6349491800        6.8922295086        4.4691216950
  H        10.0986462085        6.2960971617        2.8828263132
  C         8.5903288346        5.1387886041        3.7776334656
  H        12.0224197171        4.2484179310        2.0231077741
  C        12.0893620029        1.3825783274        1.3840324094
  H        11.7326749934        3.3954435974       15.3899310315
  H        10.6838595837        2.3828025027       14.3273265342
  C        12.1111232034        1.3266346331       15.6671122697
  C         6.7838411840        8.4380989232       16.4269244369
  H        13.1383330035        4.9913444493        6.5966689326
  H        13.4688417256        4.4197737280        4.8354157279
  C        14.5095163688        6.2674017391        5.4473116216
  H         8.1169676246        5.0392521759        4.7629753868
  H         8.7610959883        4.1115632873        3.3829285868
  C         7.6106477050        5.9636123191        3.0799832597
  C        12.0377728172       -0.0294031939        1.2150486792
  C        12.1820833811        2.1356694526        0.1033244045
  H        12.8215077331        0.7150542391       15.1846856785
  H        11.3130468223        0.5570012187       15.9668546588
  C        12.7267630697        1.9568802273       16.9866946008
  H         7.1458667384        9.4548980105       16.4189779530
  C         6.4843082051        8.0247328258       17.6959852955
  H        14.3146389611        7.1585165752        6.1438657234
  H        14.4025417604        6.8713850702        4.5023220562
  C        15.8954081537        5.6498820908        5.6424384644
  H         7.3006554470        6.7727688453        3.8003660549
  H         8.0860815235        6.4847557817        2.2517792764
  C         6.4397876332        5.0254500561        2.7439327688
  N        11.7178035509       -0.9795543378        2.1398391053
  C        12.3579671429       -0.6310663344       -0.0160860985
  C        12.4840783398        1.5262345214       -1.1052850705
  H        12.1263476200        3.2154605373        0.1137669903
  H        11.8442406168        2.3878640347       17.5216183931
  H        13.3783866773        2.8449657980       16.9641131250
  H        13.1625521186        1.2237087642       17.6899763062
  S         6.1342549231        6.4379281189       18.2168512771
  C         6.4235360466        8.9929830105       18.7525446890
  H        15.6739430659        4.6714042480        6.0534079264
  H        16.3980162824        5.5613423635        4.6904179244
  C        16.9426965231        6.4727185394        6.4996740338
  H         6.3127812322        4.1467314906        3.4574181942
  H         6.6468020677        4.5632647593        1.7587373619
  C         5.0558325211        5.7575912139        2.5647629548
  S        11.8863790020       -2.4812058897        1.4351635250
  N        12.5432747813       -2.0245548540        0.0352055052
  C        12.6291720843        0.0461769085       -1.1970556628
  H        12.5144962268        2.0848779443       -2.0473691106
  C         5.9870464078        7.1123863225       19.8571106063
  N         6.1099209826        8.4306909042       19.9378028131
  O         6.5342913748       10.1721307400       18.5410817144
  H        17.5137645519        7.3256982399        6.0449796541
  H        16.2316656964        6.8962574288        7.2112436283
  C        17.8862520482        5.4566810650        7.1847066414
  H         4.2237017117        5.0963719470        2.7818175649
  H         4.8777635843        6.5113294201        3.3088115572
  C         5.0443218030        6.5118621891        1.2080324006
  C        12.8684452701       -0.6873682690       -2.3760675624
  S         5.8234050094        6.2961425398       21.3366984860
  C         6.1798334318        9.2712726334       21.1264847737
  H        17.3212384587        5.1698449902        8.0899516069
  H        17.9866388488        4.5437692600        6.6340104362
  C        19.1807518808        6.0940539512        7.5624273364
  H         4.6295662481        5.8130439658        0.4329165597
  H         6.0586985246        6.7988363770        0.9919262453
  C         4.2380253442        7.8376774336        1.2727669010
  H        12.5491745406       -1.7184675054       -2.2559979238
  C        13.3719746063       -0.4472022229       -3.6170264547
  H         5.4333304163        8.9182642116       21.8597238067
  H         5.9478385561       10.3498305469       21.0259275958
  C         7.4724634424        9.1683992795       21.8345249576
  H        19.7602563164        5.4740561860        8.2225779553
  H        19.0657367859        7.0740601529        8.0041896450
  C        20.0409398059        6.0981365997        6.2896603003
  H         3.8559115865        8.0334369722        0.2565008095
  H         3.3654186693        7.7354919600        1.9354747655
  C         5.0861490274        8.9802646125        1.8400325915
  S        13.8265810535        1.1664303045       -4.0759950726
  C        13.2633758585       -1.4525025298       -4.6795065156
  H         7.3836698341        8.4329542412       22.6528277665
  H         7.7220178745       10.0368734598       22.3034051319
  H         8.3231043837        9.0314510964       21.1547085284
  H        19.9240521709        6.9033458141        5.5643566090
  H        21.0586097751        6.2136041840        6.5948654751
  H        20.1594864110        5.1837758487        5.7674552186
  H         5.7002448200        8.6051254069        2.6375336217
  H         5.8300922227        9.2596641738        1.1661335280
  H         4.5146085802        9.7785855546        2.2216844293
  C        14.1629861779        0.4229735756       -5.5970572770
  N        13.8807800152       -0.8949211846       -5.7500592362
  O        12.7223525143       -2.5392027617       -4.5897005712
  S        14.3668335459        1.3998466060       -7.1228286078
  C        13.9799578435       -1.6547737982       -6.9974966467
  H        14.1584491503       -2.6993874412       -6.6597812338
  H        14.9173880659       -1.3581095788       -7.4899772219
  C        12.7564046422       -1.5632520810       -7.9363452547
  H        12.3151850156       -2.5465157482       -8.1536119272
  H        13.1166032864       -1.2865168025       -8.8845038839
  H        12.0846379602       -0.7854487013       -7.5633949397
  H        -2.2905930210       15.7383753057       16.1376830427
  C        -2.4936407886       14.7552287654       16.0846386327
  H        -3.5415035768       14.6480507674       16.3689499627
  C        -1.6925889299       13.9367895838       17.1162250977
  C        -2.4470100299       14.3104160749       14.6223178639
  C        -1.9434889565       14.3454838968       18.6028066962
  H        -2.0064545510       12.8873240726       16.9590615551
  H        -0.6126054163       13.9344922499       16.8304735064
  H        -1.5745710604       14.6086220770       14.0870495190
  H        -2.5648974029       13.2187601223       14.4015467960
  H        -3.2286132829       14.8579249379       14.1081555955
  C        -1.4414301394       13.3321250081       19.6302976708
  H        -3.0028418608       14.5414925009       18.8156324758
  H        -1.4050215995       15.2199706144       18.8641928551
  C        -1.9285875146       13.6014819174       21.0127369470
  H        -1.6200457549       12.3155563004       19.3090754439
  H        -0.3655425093       13.4178916791       19.6617571876
  C        -1.0686640199       13.0383673174       22.1127868741
  H        -2.8270496969       12.9966252812       21.1325061480
  H        -2.0365576344       14.6341333070       21.2159622810
  C        -0.0123213540       14.0982244109       22.4390049580
  H        -1.6257425880       12.8216829648       23.0813525487
  H        -0.6945541395       12.0605132109       21.7553448143
  C         1.1390769912       13.4352497081       23.2263286278
  H         0.3196939212       14.4503909453       21.5471780493
  H        -0.3475515051       14.9287569756       23.0329110762
  C         1.5802413251       12.0940864865       22.6055470401
  C         0.6532181457       12.7660478149       24.4626943829
  C         2.3691405917       14.4240401656       23.5809248629
  C         1.2166216380       10.9712294874       23.3485325358
  C         2.1901640137       11.6845269620       21.4299234123
  C         0.6721831099       11.3890000771       24.5482312694
  C         0.2018137990       13.3673723065       25.6659248068
  H         2.5250617586       15.0179018049       22.6792006908
  H         2.0666042415       15.0459360299       24.4236867826
  C         3.6114457792       13.5776418782       23.8817369795
  S         1.8087565455        9.4239960924       22.7158816534
  C         2.2814641213       10.3137320874       21.3558034300
  H         2.5504875423       12.3869337855       20.7046770674
  C         0.2928726212       10.6658208503       25.6163528601
  H         0.1481074417       14.4670271450       25.7209052914
  C        -0.1484436634       12.6377075939       26.7938121513
  H         3.8683725156       12.7070157044       23.2778522138
  H         3.3790445999       13.1338543619       24.8357671447
  C         4.9231913673       14.2800977526       24.0148695304
  C         2.6789605617        9.6067937590       20.0812066349
  C        -0.0835932503       11.2685602445       26.8270119370
  H         0.3288273291        9.5804748484       25.5489713130
  C        -0.6354788269       12.9419003309       28.0737235509
  H         5.5944331182       13.6214270814       24.5921084565
  H         4.7969103988       15.1943643941       24.6480639086
  C         5.7391591632       14.6488307430       22.7735479881
  C         2.6812643147        8.2063334972       19.8453163745
  C         2.8888346697       10.3722446712       18.8752039556
  C        -0.5475192472       10.5283451952       28.0235668274
  C        -0.8315174298       11.8357317749       28.8703276688
  S        -0.8717056148       14.4338609510       28.9338410130
  H         6.4834212358       15.3507891841       23.1403190164
  H         5.1207168130       15.2705599875       22.2190021235
  C         6.3692417287       13.5691560795       21.9518410376
  N         2.3219325575        7.2658695194       20.7780150725
  C         2.8468101795        7.6366223044       18.5515209214
  C         3.1702458975        9.8592351641       17.6494947098
  H         2.7020348741       11.4267289339       18.9184627800
  C         0.5691298545        9.6756504923       28.7787124570
  C        -1.8255942952        9.7427267210       27.8721859831
  C        -1.2295345130       12.1315008761       30.1904313278
  C        -1.3501478783       13.5088476801       30.2745643245
  H         7.4465895611       13.6712059806       22.1041328219
  H         6.1335115043       12.5764953803       22.2747333716
  C         6.0131611379       13.6453606418       20.4455417645
  S         2.5363753307        5.7714821548       20.1470991281
  N         2.7536065993        6.2242169524       18.5923626109
  C         3.0854907768        8.3719161754       17.4286652361
  H         3.2448876989       10.5174319827       16.8027103754
  H         0.7256159755        8.8070710677       28.1587083338
  H         0.0466929703        9.2900095134       29.6738325744
  C         1.7839238238       10.4337262201       29.4083221041
  H        -1.6832213251        8.8383906140       27.2864387376
  H        -2.1352182347        9.3360545680       28.8209063097
  C        -2.9780548524       10.5763504447       27.2503620566
  H        -1.3310488007       11.3105146515       30.8532036452
  C        -1.5524221552       14.2850721449       31.5602132705
  H         5.5987769518       14.6071430974       20.1586197643
  H         5.1469697585       13.0497854238       20.2440891018
  C         7.2508068783       13.2788131050       19.6254407513
  C         3.2366392810        7.7445959262       16.1558907601
  H         2.2137107336       11.1007349135       28.7146680390
  H         1.5011013513       10.9457566952       30.3039890094
  C         2.8928383475        9.4938246145       29.8063148460
  H        -2.6459962867       11.2095151294       26.3571534125
  H        -3.2764987595       11.2712537794       28.0362244600
  C        -4.1222989497        9.6345484627       26.7647781214
  C        -1.6466997550       15.6962934994       31.7504736921
  C        -1.5456040762       13.5511333785       32.9200155252
  H         8.0350172200       13.9715102011       19.9651728416
  H         7.5504540560       12.2520825379       19.9516580291
  C         7.0227825439       13.4654830982       18.1441620810
  H         3.0934879150        6.6526694207       16.2978723713
  C         3.5087480558        8.1087659662       14.9019875034
  H         3.4101464430        8.9237725801       29.0763177404
  H         2.3783477370        8.7117993029       30.4156965240
  C         4.0700093506       10.1615101305       30.5900864322
  H        -3.7428058824        9.0746778468       25.9198492740
  H        -4.5142881198        8.8426808488       27.3857670386
  C        -5.2988176649       10.5352285079       26.2994241947
  N        -1.3972296822       16.6891841978       30.7964352191
  C        -1.8767861622       16.3229968702       32.9986926467
  C        -1.8977163143       14.1699432437       34.1024676101
  H        -1.3267507654       12.5193754545       32.8836599040
  H         6.0097727821       13.7418211028       17.8469359580
  H         7.6298481474       14.2916062235       17.8578340636
  H         7.3089812511       12.6512691251       17.5524158979
  S         3.9266784290        9.6857071847       14.3699411254
  C         3.5912755116        7.0684185461       13.8030357229
  H         4.1244816968       11.1890796486       30.1561396086
  H         3.5926456494       10.4031461149       31.5677430438
  C         5.4725566396        9.5078345165       30.6007312310
  H        -4.8971554243       11.2380650210       25.5782268563
  H        -5.7228740873       11.1230044059       27.1885409853
  C        -6.3586422670        9.6276527635       25.6697098390
  S        -1.3875915685       18.2014336255       31.3913014874
  N        -1.7758902498       17.7336926862       32.9537565905
  C        -2.1199475530       15.6542924372       34.1902189663
  H        -1.9664415255       13.6071208129       35.0612043141
  C         4.1414691543        8.9466693867       12.7828956994
  N         4.0692747270        7.6067245030       12.6897614784
  O         3.2769494731        5.8910000383       14.0086690774
  H         6.1145960061       10.1312960680       31.1154454816
  H         5.7735229738        9.5606618391       29.5084264764
  C         5.2540095308        8.1338140604       31.1916585868
  H        -5.9717813170        8.8999612703       24.9655117556
  H        -6.7443417831        9.1090113657       26.4482233857
  C        -7.4497377606       10.3919647679       25.0866681461
  C        -2.4404727710       16.3670758250       35.3101974409
  S         4.6031489319        9.8248078786       11.2965778438
  C         4.0922305889        6.7355891321       11.5081652773
  H         4.4121994984        8.1789145321       31.8754858210
  H         4.9394520442        7.5076349791       30.3614892684
  C         6.5372327700        7.5882131149       31.7330260912
  H        -6.9841389799       10.9440857242       24.2600377905
  H        -7.7011495610       11.1809951432       25.7304396803
  C        -8.6801319408        9.6694900585       24.5624296376
  H        -2.2991626847       17.4460063049       35.2553994335
  C        -2.9019235379       15.9863685783       36.5601053100
  H         4.8580064734        7.0954343907       10.7578747710
  H         4.5452824762        5.7474737257       11.7278819773
  C         2.6613225094        6.7709789648       10.9771364410
  H         6.6044020584        7.6770532403       32.7921025498
  H         7.3601666154        8.1729686951       31.2461994704
  C         6.7684098247        6.0690221244       31.3339357718
  H        -9.1200798891       10.2661825906       23.7601219102
  H        -8.3109049838        8.7759759718       24.0472649574
  C        -9.6702935011        9.3210260831       25.6522016525
  S        -3.4601814841       14.4178190527       37.0236831751
  C        -3.1911163581       17.0924210394       37.4386631617
  H         2.4112943179        5.9156872149       10.3669258145
  H         1.9480499482        6.9788680949       11.7512251648
  H         2.6548772947        7.6232062464       10.3799881940
  H         7.0015128706        5.4169037088       32.1836170883
  H         7.5475637732        6.0266851024       30.6111591972
  H         5.9131081031        5.6581929620       30.7027921556
  H       -10.1435069036       10.2697787527       25.8467339797
  H        -9.2475312503        9.0826933742       26.6131118436
  H       -10.6088972829        8.7884164788       25.3885067088
  C        -4.1030002837       15.2944815113       38.4340379157
  N        -3.8741129341       16.5843492156       38.5080132724
  O        -2.8637140910       18.2521232914       37.2959993904
  S        -4.9221134013       14.5123167913       39.7445898793
  C        -4.1812639023       17.4049455406       39.6281018407
  H        -4.0944707291       18.4504918778       39.4840222851
  H        -5.1758743161       17.2459698031       40.0500871472
  C        -3.3161155528       17.1550996962       40.8447689494
  H        -3.1066257467       18.1258042811       41.2623476996
  H        -3.9560957641       16.6084080106       41.5769871157
  H        -2.4208612628       16.6092835400       40.6552277937
