352
i=
  H         5.1555376024        1.7262489525       13.6739567565
  C         4.5072384978        2.6686792092       13.6927319590
  H         5.1952112023        3.5196227514       13.6255852665
  C         3.5658108051        2.4948017314       12.4560155882
  C         3.6352283954        2.8686727033       14.9386281794
  C         4.1822183632        2.8187583710       11.1449796539
  H         2.8347888735        3.2895406950       12.5360395123
  H         3.0032900505        1.5380860964       12.5846653625
  H         3.1105873583        1.9420178742       15.1068104140
  H         2.9110191214        3.6688685019       14.8071012379
  H         4.0853049466        3.1703872549       15.8726012618
  C         4.5215363732        1.5348334234       10.3429098370
  H         3.5143952845        3.4137874994       10.6302708391
  H         5.0654788159        3.4989609478       11.1381785044
  C         5.0277357309        1.8269569412        8.9130498372
  H         3.6643386618        0.8655415209       10.2700359908
  H         5.2716445035        0.9387747642       10.8654185199
  C         6.3435555427        2.5660902914        8.8640576891
  H         4.2000193588        2.3427688428        8.4182372363
  H         5.1185943738        0.8848229471        8.3619123567
  C         7.6416869290        1.7842296887        9.2461368543
  H         6.3522994538        2.9829959188        7.8856949660
  H         6.1898807037        3.4834246100        9.4408182240
  C         8.8457725691        2.7387343955        9.5294535506
  H         7.7492886085        0.9682361960        8.5637067372
  H         7.3705357832        1.3078799325       10.2276101886
  C         8.5207399237        4.0945360177       10.2259800334
  C         9.3065544773        3.4472459097        8.2724842456
  C        10.1091640111        2.0922566589       10.2485142846
  C         8.8226331754        5.1752390463        9.3966309758
  C         8.1659701811        4.5730138534       11.4753674539
  C         9.2700570530        4.7897231897        8.1851338835
  C         9.8122116315        2.8652833713        7.1172922167
  H         9.6379935504        1.5728012697       11.1300840268
  H        10.6028327361        1.3121527919        9.6166357054
  C        11.3406507807        2.9617446187       10.7426352525
  S         8.4632751615        6.7113650500       10.0759644910
  C         8.1166549477        5.9100599680       11.5638018699
  H         7.9580174075        3.8833316989       12.2398161731
  C         9.6467738083        5.4683793216        7.0539205601
  H         9.7634310901        1.8720133548        7.0606004104
  C        10.2125767974        3.5318242115        5.9967437251
  H        10.9246642966        3.8667478536       11.0619943821
  H        11.9894729057        3.2194760149        9.8944203960
  C        12.2016987667        2.3041722322       11.8168028995
  C         7.7248204861        6.6668906390       12.8382377714
  C        10.1882320050        4.8742886860        5.8984947798
  H         9.5225833033        6.5296465230        7.0102642088
  C        10.7218668216        3.1409603031        4.7699811783
  H        13.0946680324        2.9174339194       12.0031337302
  H        12.6403665084        1.3885784962       11.4451724490
  C        11.4891602477        2.1370685092       13.1859897455
  C         7.7620186727        8.0195441103       13.0546865354
  C         7.1987557503        5.8559485856       13.9318251152
  C        10.6171807898        5.5760840055        4.6182617083
  C        11.0131991352        4.2066261014        3.9711383966
  S        11.0899042999        1.6764078744        3.9776700328
  H        11.1262282891        3.0619968027       13.6525068923
  H        10.6397245920        1.4661829322       13.1222714734
  C        12.2529987215        1.4838070140       14.3092651531
  N         7.9843108504        9.0002663070       12.0158222374
  C         7.5365380428        8.5739387716       14.3173547008
  C         7.0114667756        6.4143349974       15.2151719249
  H         6.9678426435        4.7314222506       13.8163214739
  C        11.8396076464        6.6045171732        4.7626736437
  C         9.4752474691        6.1263421023        3.7836548814
  C        11.5148793658        3.8226367749        2.7057489715
  C        11.4976364137        2.4297664617        2.5319913037
  H        12.9863786570        0.7701726707       13.8168322232
  H        11.5138085956        0.8656012982       14.8543902579
  C        13.0023995972        2.3848562193       15.3038067589
  S         8.0499963500       10.4621219927       12.8193206109
  N         7.7762511921        9.9626615438       14.3414952526
  C         7.2304814960        7.8745852511       15.4856968135
  H         6.6919295771        5.7759454828       15.9752681665
  H        11.5242286213        7.3984090495        5.4327316844
  H        12.1867585632        7.0360651623        3.8021124137
  C        13.0289390146        5.9271438910        5.4284372643
  H         8.9241497714        6.7731321865        4.4452962556
  H         9.9042067020        6.6405913885        2.9240953676
  C         8.3800084864        5.2672560014        3.2298035138
  H        11.6965349159        4.6476412338        1.9413082001
  C        11.8372008289        1.6686780569        1.2493906496
  H        14.1112630445        2.2559200148       15.3080670309
  H        12.8421153696        3.3912670014       14.9550210222
  C        12.6240123409        2.2059726393       16.8197624354
  C         6.9566325474        8.5628358100       16.7134162027
  H        12.8092789325        5.7853082161        6.4616653757
  H        13.1422675642        4.9216479830        5.0975413508
  C        14.4728942552        6.5407573751        5.1591335650
  H         7.8350832423        4.7531099934        4.0577618401
  H         8.7698518134        4.5178623009        2.5500893924
  C         7.3431335611        6.0868757143        2.4170902658
  C        11.9111847791        0.2944272044        1.1920836398
  C        12.1546618141        2.4332760701        0.0375617265
  H        12.5232415231        1.1880224613       16.9785591484
  H        11.6024151600        2.6205248515       16.8160266423
  C        13.6502783177        2.9219248832       17.6987464212
  H         7.0781532915        9.6118524018       16.5541831735
  C         6.6954441846        8.1242233294       18.0266660055
  H        14.4312430194        7.6781154895        4.8926399176
  H        14.7087290398        6.0865341000        4.2491472119
  C        15.3778629125        6.2198557299        6.3410784940
  H         7.1720157115        7.0135702816        2.9357418067
  H         7.8325486715        6.3802882924        1.5242248580
  C         6.0107671959        5.4387294675        1.9482596476
  N        11.7221172319       -0.6333219281        2.2406462076
  C        12.1506522828       -0.3649078501        0.0076491795
  C        12.4026047559        1.7748564881       -1.1653877428
  H        12.1429745838        3.4997001144       -0.0074066652
  H        14.7075108199        2.8214301250       17.3868103106
  H        13.6170660297        2.5924982163       18.7066674315
  H        13.5226427008        3.9955546483       17.7331035938
  S         6.5679757035        6.4678602892       18.4820033121
  C         6.6015057517        9.1245838473       19.1189394305
  H        15.7187085299        7.1994258302        6.7942055333
  H        14.8403813814        5.6709559073        7.1155442804
  C        16.5293898432        5.3498906499        5.7938366738
  H         5.7247036778        4.6337469847        2.6357713040
  H         6.3172183781        4.9943983836        0.9817467314
  C         4.7311511593        6.3391311431        1.7449051645
  S        11.8992982024       -2.1600654001        1.7113894385
  N        12.1287611263       -1.7253606851        0.1377535207
  C        12.3740763897        0.3314399107       -1.2481292445
  H        12.6051029866        2.3094019281       -2.0495971673
  C         6.1967102871        7.0780625877       20.0765879807
  N         6.2920551953        8.4198632626       20.2284563849
  O         6.7519730085       10.3137075887       19.0354735808
  H        16.1996386736        4.4063293732        5.5138253914
  H        16.9226780086        5.7939668849        4.8082720018
  C        17.6238968367        5.1367437734        6.8024171855
  H         3.9782442758        5.6772746384        1.2761272069
  H         4.3801451188        6.6686163468        2.7440008134
  C         4.8226194007        7.5666394205        0.7867334268
  C        12.6610614555       -0.3515301863       -2.4667199413
  S         5.6268704287        6.1762161234       21.5394711940
  C         6.3317822805        9.1007829949       21.5329500120
  H        17.4439931941        4.9563507299        7.8668339363
  H        18.2723134300        4.2352236609        6.6729228320
  C        18.5762718414        6.2992835419        6.8198202304
  H         4.5291459683        7.2356824930       -0.2248415460
  H         5.9016255586        7.9014297849        0.8150745637
  C         3.7517150853        8.5911286275        1.2603589992
  H        12.5516384330       -1.3689857481       -2.4521514331
  C        13.1555985940        0.0474109154       -3.7270778225
  H         5.6767711397        8.5215353929       22.2019829879
  H         5.8969091324       10.0945681615       21.3935356380
  C         7.7436107593        9.2040424248       22.0181216100
  H        18.3976950752        6.7250449985        7.8184434730
  H        18.1093879414        7.0343943443        6.1676903201
  C        20.0698481397        6.0850534372        6.5854148683
  H         3.2065447302        9.2055845627        0.3960936460
  H         2.8958292003        7.9679750960        1.7277849982
  C         4.2679848280        9.5087455793        2.3517563501
  S        13.3994270270        1.6148279290       -4.2865338352
  C        13.3747917058       -1.0790357731       -4.7180130979
  H         7.8408470597       10.1039260572       22.5379122569
  H         8.4547086993        9.1649626749       21.2324030713
  H         7.8896365240        8.5623958131       22.8687923173
  H        20.5205668107        5.4576298189        7.2942322515
  H        20.2084097411        5.5933187421        5.5926611923
  H        20.5804267564        6.9869201406        6.4549924768
  H         5.3209000354        9.7163961064        2.1379747564
  H         3.8330156779       10.4692391060        2.3927058584
  H         4.2071250939        9.1055012851        3.3603470185
  C        14.0036864192        0.8085876163       -5.8217094582
  N        13.8840393917       -0.5152379548       -5.8468067659
  O        13.1812795145       -2.2847262375       -4.5447754315
  S        14.6549553972        1.7235752150       -7.2395442455
  C        14.1876782189       -1.3708930737       -6.9687299073
  H        14.6066364407       -2.2936463895       -6.6381921246
  H        14.9385430945       -0.9059081272       -7.5639458551
  C        13.0010272955       -1.6194210036       -7.8747615138
  H        13.4256536606       -2.0425135015       -8.7890593385
  H        12.4596679907       -0.7466771163       -8.1715443621
  H        12.1891433927       -2.2469839562       -7.4560663211
  H        -3.0114630107       15.0783584047       16.8515860799
  C        -3.1369283601       14.0857704134       16.7451842396
  H        -4.1684658321       13.7587987741       17.0176176132
  C        -2.3230174518       13.3041995637       17.6343742081
  C        -2.7210692406       13.8119320046       15.3190477460
  C        -2.8715276266       13.2468709874       19.1173973880
  H        -2.3083549398       12.2753205878       17.2955844594
  H        -1.2993157943       13.6322305941       17.5196332349
  H        -2.9598916156       12.7555713071       15.0990298643
  H        -3.3476838953       14.2737075653       14.5281818464
  H        -1.5884437011       13.9715552240       15.1322638102
  C        -1.7193823016       12.9414657570       19.9600435778
  H        -3.6858552880       12.4902180655       19.0700582264
  H        -3.3656055758       14.1719610759       19.4449520231
  C        -2.0386557930       12.9623128762       21.4678704863
  H        -1.3674621382       12.0220428757       19.5895002695
  H        -0.8597306869       13.6897700686       19.8010646006
  C        -0.8050622837       12.5667927091       22.2904963007
  H        -2.9652947016       12.4203391922       21.6360724648
  H        -2.2647790050       14.0078044002       21.7362850338
  C         0.3154934915       13.6000775128       22.5579979680
  H        -1.1412145533       12.1301381115       23.2722353249
  H        -0.3053642017       11.6726410272       21.9048526399
  C         1.5387644564       13.0933267411       23.3059444026
  H         0.7560309990       13.8802640566       21.6247889520
  H        -0.1678615527       14.4523080003       23.0331906491
  C         2.1167902329       11.8235363518       22.6190486991
  C         1.0798128995       12.3674072181       24.5544730166
  C         2.6372019671       14.1828604964       23.5624507585
  C         1.9290967044       10.7163068425       23.4272723528
  C         2.6562961512       11.4411975824       21.3910730150
  C         1.2808721157       11.0573324804       24.6495128782
  C         0.5639639243       12.9780843389       25.6872667381
  H         2.8269009469       14.6651730526       22.6135941696
  H         2.4391839893       15.0335384417       24.1951450181
  C         3.9854990551       13.5620801632       24.0753576555
  S         2.3893559521        9.2179197244       22.6684024298
  C         2.8752868725       10.0819408484       21.2356036608
  H         2.6978952039       12.2316754289       20.6488261408
  C         0.9065663501       10.3798017961       25.7771559829
  H         0.5643532377       14.0028166087       25.7866770280
  C         0.1724461561       12.3157168282       26.8142789033
  H         4.4463284438       12.9095555292       23.3974383726
  H         3.7208458459       12.9644389945       24.9707031043
  C         5.0003506542       14.6175647236       24.4066234254
  C         3.1114937848        9.3301993821       19.9310148109
  C         0.2860990910       10.9470701434       26.9074245690
  H         0.9822272916        9.2996170871       25.7853842270
  C        -0.3521927945       12.6472064049       28.0268157187
  H         5.6558456455       14.0701226697       25.1106885210
  H         4.6170499397       15.5074200413       24.9774265232
  C         5.5096943272       15.1002143422       23.0634283837
  C         2.9737805643        7.9581705858       19.5753559001
  C         3.6036064505       10.1523088314       18.7628880598
  C        -0.1953798463       10.2361713136       28.1428113007
  C        -0.5438832354       11.5426031862       28.8627979986
  S        -0.5821543902       14.1346945288       28.8424052547
  H         5.9987297049       16.0463588557       23.1550831452
  H         4.7834659777       15.4731452292       22.3256959976
  C         6.5643514614       14.2959092109       22.4222377724
  N         2.5406765574        6.9514695227       20.4345829778
  C         3.1139900289        7.5183398983       18.2653706141
  C         3.7679501492        9.6747759030       17.4834069248
  H         3.8531216030       11.1418941318       18.9667481839
  C         1.0587256539        9.5046035964       28.8023742266
  C        -1.4358837045        9.2819006182       28.0831685830
  C        -1.0066530337       11.9547662799       30.1220054248
  C        -1.0216658813       13.2903904034       30.2826133614
  H         7.4134466679       14.9250773752       22.3675703189
  H         6.8316436068       13.5331467204       23.0857404331
  C         6.2485486621       13.8387314001       21.0266311989
  S         2.7170863363        5.5610334453       19.7312425976
  N         2.9875498513        6.0952583698       18.2228574260
  C         3.5355949967        8.2690731808       17.1145389677
  H         4.2579619622       10.3672600705       16.7417659222
  H         1.5422622799        8.9477079657       28.0209165708
  H         0.8479605010        8.7440254787       29.5563294144
  C         2.0530258434       10.4096248236       29.5845066625
  H        -1.2435529957        8.4888203206       27.3578967005
  H        -1.5982935141        8.8703322810       29.0915928132
  C        -2.7008893300        9.9417402080       27.5601372252
  H        -1.3183017705       11.1731847398       30.7928475425
  C        -1.4469395269       14.0088430458       31.5343988574
  H         5.9843381575       14.6833575260       20.3870724058
  H         5.4853211522       13.0135920422       20.9326437654
  C         7.5632179566       13.3110787610       20.4884438703
  C         3.6469755475        7.6208195070       15.8602755014
  H         2.5464761483       11.2146589765       28.9346850562
  H         1.6530687444       11.0269659974       30.3596988971
  C         3.1534384983        9.5513968805       30.1426874355
  H        -2.4505731801       10.3887746667       26.6079735487
  H        -2.9033213801       10.7693036502       28.2563414483
  C        -3.8473400666        8.9795079213       27.4680337106
  C        -1.5222747922       15.3996460896       31.7030599848
  C        -1.5894074447       13.2247660988       32.7731002698
  H         8.3483295517       13.8184674165       21.0301104643
  H         7.6703214144       12.2098988061       20.6461513300
  C         7.7707021389       13.5683149235       19.0639088623
  H         3.4309793007        6.5604590882       15.9139041424
  C         3.9436918126        8.1696744749       14.6341685370
  H         3.5941253282        8.8830354484       29.3465491899
  H         2.8084813464        8.9662304261       30.9667419396
  C         4.3372984574       10.3218116020       30.6767325511
  H        -3.7199920246        8.2212676798       26.7681978738
  H        -3.8932675227        8.5276838760       28.3912415688
  C        -5.2254911213        9.6482076034       27.1717000089
  N        -1.3952228828       16.3031159564       30.6710678300
  C        -1.5721462704       15.9711479945       32.9666437272
  C        -1.8243017669       13.7882350781       33.9988905374
  H        -1.4658889152       12.1502352327       32.7802141136
  H         6.9665656059       13.2186366646       18.4110009802
  H         8.0199148944       14.5985232035       18.9545973055
  H         8.6988431838       13.0556952858       18.9137767448
  S         4.0358297453        9.8356570784       14.1132064953
  C         4.1228318288        7.2093776662       13.4978731556
  H         4.4060537773       11.3152898942       30.1613701917
  H         4.1651757661       10.5845357190       31.7742685391
  C         5.6587989974        9.5754015646       30.4044003831
  H        -5.2319828625       10.6607859045       27.6267188315
  H        -6.0977794643        9.1144175558       27.6197889423
  C        -5.5249202984        9.7052328085       25.6944635264
  S        -1.3520984461       17.8005035261       31.3186162958
  N        -1.6332575479       17.3777092703       32.8927700530
  C        -1.8425625305       15.2752491956       34.1297398366
  H        -1.9941074578       13.1522742842       34.8437635568
  C         4.3883217017        9.1997295271       12.5365471343
  N         4.4057390941        7.8701423454       12.4046914699
  O         3.9995157271        6.0030340618       13.6478826422
  H         6.5517102006       10.2188766646       30.5059225692
  H         5.7704723651        9.3367462335       29.3387721836
  C         5.9624974682        8.2410949828       31.1515971513
  H        -4.6084893033       10.1117615467       25.2308549908
  H        -5.6299846381        8.7030577739       25.2237980260
  C        -6.5253160004       10.7218908236       25.2579088590
  C        -2.1331600688       16.0021479229       35.3006676721
  S         4.8735784021       10.1497137731       11.1506972380
  C         4.6919576270        7.1444005772       11.1990212858
  H         6.7388127196        8.3902675975       31.9294080886
  H         5.0309177792        7.9949101385       31.6548500882
  C         6.4367616838        7.1125144844       30.2356686818
  H        -6.2421189308       11.0694611313       24.3080616078
  H        -6.5597217540       11.6222565421       25.9248408481
  C        -7.9033205082       10.1233440737       25.0437671294
  H        -1.8324065377       17.0611185079       35.2988842246
  C        -2.7656293363       15.6597823822       36.4760360746
  H         5.2896303572        7.4760202765       10.3206182793
  H         5.2752883423        6.2930577663       11.4223599698
  C         3.4305911217        6.4156667588       10.7015967079
  H         7.2971620972        7.4993343200       29.5886179028
  H         5.8505356899        6.8088177179       29.3919148958
  C         6.9395460267        5.8749544598       31.0107362040
  H        -8.3364133777       10.6763285466       24.2333085602
  H        -7.8343595663        9.0548177531       24.8066985943
  C        -8.9659033747       10.4912195862       26.1007073174
  S        -3.2382356429       14.0789466429       37.0354170330
  C        -2.7971525210       16.7939881337       37.4331475596
  H         2.6963430297        7.2372876875       10.7129229215
  H         3.5727353084        6.0141542571        9.6967951482
  H         2.9954833364        5.7389488123       11.3808285772
  H         7.4665371364        5.1569447986       30.3568569140
  H         6.1418419551        5.4560325800       31.6213873730
  H         7.7617901215        6.0971068910       31.7408781692
  H        -9.9527805881       10.7343023149       25.6684615881
  H        -8.6362002136       11.3028898287       26.7663733297
  H        -9.1950869869        9.5930640693       26.7407229309
  C        -3.5208304703       14.8746879740       38.5945409693
  N        -3.3548012992       16.2221060881       38.5761493558
  O        -2.5570517090       17.9725148528       37.3133181170
  S        -3.9881258988       14.0923560732       40.0879465704
  C        -3.4999867801       17.0098210277       39.8109739021
  H        -3.8642242863       18.0213250431       39.4742189597
  H        -4.3004099574       16.7104827453       40.4552721952
  C        -2.2165687962       17.1480537958       40.5748501762
  H        -1.6151269744       18.0359235037       40.2184220877
  H        -2.3875257879       17.4336054395       41.5964815028
  H        -1.4980418927       16.2684882953       40.5097234523
