352
i=
  H         4.6924948812        1.9637974543       12.6399433796
  C         3.8977550622        2.6339351738       12.6321502596
  H         4.5200704507        3.5252779624       12.5580679902
  C         2.9333131073        2.3929800848       11.4684222151
  C         3.2210564447        2.6983140442       14.0194689777
  C         3.5903541604        2.5476828207       10.0748990340
  H         2.1381238805        3.0828653818       11.3588562447
  H         2.3999320501        1.4220412390       11.5653585678
  H         3.8648537401        3.2825910397       14.7649598544
  H         2.9935204205        1.7666864989       14.5286292638
  H         2.2670614466        3.2777299696       14.0016742778
  C         4.2750092033        1.3827248392        9.5014925438
  H         2.7296777253        2.8140678972        9.4615140822
  H         4.2819117688        3.3526245845       10.0033614323
  C         5.0053938816        1.7702292212        8.1556694622
  H         3.5583998597        0.6636739241        9.2231392309
  H         4.9881531890        1.0519637503       10.1930881527
  C         6.2411371271        2.6957653433        8.2722228349
  H         4.1812316413        2.1239174812        7.5258362645
  H         5.1732327125        0.8372616586        7.6291759151
  C         7.4478209842        1.9494169497        8.8223678955
  H         6.4761092517        2.9871027563        7.2651483236
  H         5.9722720140        3.5895761580        8.8323379440
  C         8.7134594666        2.8280609283        9.0731776006
  H         7.7472747080        1.1002775883        8.2667893968
  H         7.2512195307        1.5633835659        9.8066814122
  C         8.4886326160        4.2195793626        9.8981645949
  C         9.0279557686        3.6149851084        7.8682068449
  C         9.8934819000        2.1046777850        9.7643718780
  C         8.6827223541        5.3463567095        9.1286169286
  C         8.0441564811        4.5763207881       11.2343981020
  C         9.0641312141        4.9783633391        7.8368758315
  C         9.4193796501        3.0067041210        6.6976626683
  H         9.5500058840        1.7078079949       10.6985351665
  H        10.1003614303        1.1782219685        9.2343526988
  C        11.1559300099        3.0042250867        9.9594562845
  S         8.2890441033        6.8172795212        9.8887798519
  C         7.9414268318        5.9404743795       11.3078145968
  H         7.8060483814        3.8169514310       11.9569295230
  C         9.5138114819        5.6733583663        6.7170681352
  H         9.3121692175        1.9262489829        6.6718180395
  C         9.8671537989        3.6397830522        5.6005465617
  H        10.9321191351        4.0448055383       10.0928365559
  H        11.6731513782        3.1742215076        9.0633206152
  C        12.0321501768        2.5074540314       11.1399462491
  C         7.6265212139        6.6416828443       12.4980434547
  C         9.9301096548        5.0251210488        5.5050039093
  H         9.5125760341        6.7093423933        6.6910519302
  C        10.4150952442        3.2552559955        4.3949663793
  H        12.9751011966        2.9294864231       11.0139108726
  H        12.1330587176        1.4095474252       10.9329847737
  C        11.5556666384        2.6559809708       12.5774203474
  C         7.6383010029        8.0639658993       12.7337601182
  C         7.1631630540        5.8041145678       13.6268280263
  C        10.3165085217        5.6835073233        4.2209501119
  C        10.5506382733        4.3299525691        3.5281828495
  S        10.7625894128        1.6862391839        3.6944942119
  H        11.5282202522        3.7310488697       12.7703780440
  H        10.5697216489        2.4325916255       12.5664625136
  C        12.3833377379        1.8424980052       13.4689701795
  N         7.9854976815        9.1176586396       11.8839505205
  C         7.4272197303        8.5837679783       13.9830880486
  C         6.8994772451        6.3731846968       14.8548043391
  H         6.9061030019        4.7498032765       13.5064004154
  C        11.6629026093        6.4517777987        4.2397114627
  C         9.2125455934        6.5025139575        3.5994682844
  C        10.9035330811        3.9061684232        2.2294172661
  C        11.1169656669        2.5083995994        2.1299274134
  H        13.4578231307        2.0500465375       13.3128698387
  H        12.1878241790        0.8553760743       13.3263266115
  C        12.0181629390        2.3197286364       14.9434781451
  S         7.9043953162       10.5419383791       12.6508314153
  N         7.5480612153        9.9331276100       14.0652739915
  C         7.1556375832        7.8317032386       15.1428137868
  H         6.7154264420        5.7051211627       15.7240002644
  H        11.5571599987        7.4616581733        4.7054993291
  H        11.9636153125        6.6245708664        3.2642453847
  C        12.7853761574        5.6496585104        4.9773511505
  H         8.9135464243        7.3030048903        4.2872769535
  H         9.5245325220        6.9576678161        2.6436440118
  C         7.8787425910        5.7770871329        3.3021167622
  H        10.9546944047        4.6918545954        1.4888586869
  C        11.4646297393        1.7435936955        0.9746334139
  H        12.1374954640        3.3793717755       15.0773811345
  H        10.9269221579        2.2168384663       15.0505428250
  C        12.7199422347        1.6079435407       16.1109914551
  C         6.9098884781        8.5205677294       16.3699595268
  H        12.4481229523        5.3639311523        6.0021119841
  H        12.9513026648        4.6504953738        4.4620541799
  C        14.0820856098        6.4225730210        5.1213559368
  H         7.5320400259        5.3968034889        4.2713204921
  H         7.9602601229        4.8997793602        2.6809185483
  C         6.9534223788        6.7082548378        2.5962715184
  C        11.5632615921        0.2829141319        0.8785682872
  C        11.6187263479        2.4729496082       -0.2983165182
  H        13.6950380787        1.3051834395       15.6844599041
  H        12.1287421350        0.7104263095       16.1763634599
  C        12.5222439989        2.2751576758       17.4538296967
  H         7.1942546805        9.5817042893       16.3712245943
  C         6.6202898365        8.0710047904       17.6498293166
  H        13.9727601754        7.2353067501        5.7884355276
  H        14.4646804147        6.8142610546        4.2146610100
  C        15.1840065690        5.4669939265        5.6979472691
  H         6.6896316128        7.5638884546        3.2150296317
  H         7.3301406872        7.1877540744        1.6435123721
  C         5.6815957001        6.0287721357        2.0807496489
  N        11.3040336664       -0.5708364042        1.9576294582
  C        11.8463782283       -0.4250900571       -0.2459146670
  C        12.0640653520        1.7796471775       -1.4441852107
  H        11.5845453411        3.5475819743       -0.4241975267
  H        12.6869672205        3.3670184357       17.4631429279
  H        13.0351907262        1.8895509877       18.3062906416
  H        11.4948006613        2.0528716387       17.7135178519
  S         6.2656814773        6.4779302602       18.1064082046
  C         6.6049608428        9.0912765514       18.7255000194
  H        14.6535889231        4.8475096525        6.4338525019
  H        15.5493870412        4.8368100207        4.9430815560
  C        16.3496917623        6.2782882136        6.2421400333
  H         5.1415435167        5.5160590024        2.8473800763
  H         5.9528349781        5.1689424342        1.4760438795
  C         4.8071800121        7.0458858221        1.4564583809
  S        11.5982859489       -2.0736268143        1.5296358010
  N        11.7328893100       -1.7995413108       -0.0765194692
  C        12.1580058367        0.2334756419       -1.4987944636
  H        12.2486248013        2.3932666945       -2.3206109173
  C         6.0021129212        7.1523749384       19.7218247261
  N         6.2097021701        8.4815342952       19.8340051599
  O         6.7966967012       10.2848101557       18.5250194946
  H        16.7705416018        7.0545690764        5.6090855685
  H        15.9038376671        6.8252404200        7.1501721923
  C        17.4439948535        5.3490296431        6.7057569001
  H         5.2548752838        7.8636997018        0.8794011188
  H         4.2212423795        6.5349440868        0.6926396722
  C         3.9559763227        7.6995874737        2.5368609260
  C        12.4061648589       -0.5445802166       -2.7038613505
  S         5.6225869493        6.1805632258       21.1068337143
  C         6.1398363232        9.2245902045       21.0407046465
  H        16.9646269701        4.6239818452        7.3166920397
  H        17.7202584144        4.7543129833        5.7849376104
  C        18.6782739736        6.0003162667        7.3351558981
  H         4.5964227531        8.0138523251        3.3970363924
  H         3.3406088307        6.8341318874        2.8472265507
  C         3.0268759352        8.7569023544        1.9699202188
  H        12.0979851437       -1.6030416198       -2.5924966302
  C        12.8228015237       -0.1831649424       -3.9721062354
  H         5.3903730858        8.7160066373       21.7605526225
  H         5.6441242344       10.1189082471       20.8648078161
  C         7.4955896711        9.6232871026       21.6437072311
  H        18.9109352719        5.4517125611        8.1843646325
  H        18.4646374574        7.0129212299        7.6913007338
  C        20.0008984902        6.0208783952        6.5297646261
  H         2.6403554821        8.5320320519        0.9724196751
  H         2.1261892907        8.7514756720        2.5984089064
  C         3.7398844625       10.1410581984        2.0384391732
  S        13.3693343028        1.3762342479       -4.5247800426
  C        12.8937785366       -1.2193933356       -5.0127755138
  H         8.2784803233        9.3637841716       20.9965894170
  H         7.6799733902        9.1177248337       22.7081191057
  H         7.5663970421       10.6942542735       21.6745844853
  H        20.7766123240        6.5344769691        7.1028378713
  H        20.3518435307        5.0525007916        6.2012274961
  H        19.8864886188        6.6744456517        5.6746932677
  H         3.1335856234       11.0974762328        2.2044707185
  H         4.5024661955       10.0723786581        2.8290628190
  H         4.1899897951       10.2547978426        1.0584849159
  C        13.4600737581        0.6536947823       -6.1133896221
  N        13.3519344971       -0.6662689519       -6.1801163767
  O        12.7175456102       -2.4123631242       -4.8088843864
  S        14.1106476082        1.4917038899       -7.5028804633
  C        13.6241227782       -1.4547710286       -7.3633259266
  H        13.8985027433       -2.4602262047       -7.0175793790
  H        14.5584883683       -1.2188565544       -7.7937453696
  C        12.4021447550       -1.5871945183       -8.1748833953
  H        12.4891233659       -2.5729854520       -8.5815108908
  H        12.3562715989       -0.8961283143       -8.9906165500
  H        11.5214866207       -1.5214866325       -7.5499978889
  H        -4.4128775015       13.5406838421       16.1871884034
  C        -3.3015369023       13.7424110997       16.1390305351
  H        -2.7619436453       12.8717875755       16.3761568254
  C        -2.9194128580       14.7327367675       17.1794379484
  C        -2.8644776142       14.0193913662       14.6845161166
  C        -3.4388202549       14.2097701724       18.5003686915
  H        -1.8336918924       14.9099793666       17.0912734403
  H        -3.3460813072       15.7038059182       16.9869629401
  H        -3.5344368729       13.4557139840       14.0530121646
  H        -3.1024343373       15.0146649643       14.4480104943
  H        -1.8442057927       13.7438949755       14.4558099811
  C        -2.2863847495       14.1894963620       19.4456036020
  H        -3.8803640121       13.2235631612       18.3502036914
  H        -4.1713983706       14.9720260199       18.8907869676
  C        -2.6395555856       13.8112192080       20.9306897511
  H        -1.4546867309       13.6114043698       19.1103306727
  H        -2.1363215690       15.2832725726       19.5342395765
  C        -1.6456004787       12.9816593626       21.6895950300
  H        -3.6324842809       13.3182361951       20.8405292115
  H        -2.7027568399       14.7326959671       21.4802981350
  C        -0.4095354688       13.9138008803       22.0776340044
  H        -2.1333838732       12.3495558937       22.4596881199
  H        -1.2333169936       12.2111151727       21.0249931287
  C         0.8239567020       13.2403600243       22.8548982004
  H        -0.0294244449       14.2723019445       21.1904798018
  H        -0.7092616423       14.8366900001       22.6944609486
  C         1.2630649540       11.9674118753       22.1645250241
  C         0.3690363955       12.5087929118       24.1280940535
  C         2.0344769889       14.2062713222       23.0980368368
  C         1.2306504047       10.8749106812       23.0391263947
  C         1.7900602749       11.5303855746       20.9395115547
  C         0.6060041147       11.1860983695       24.1979048136
  C        -0.1912181461       13.0872418064       25.2473507812
  H         2.2682470933       14.6796039172       22.1452693568
  H         1.8732907040       14.9722878215       23.9372253003
  C         3.2950952936       13.5070413658       23.7378383512
  S         1.9107137649        9.3957725735       22.3878335828
  C         2.2198043942       10.2371560174       20.9246486100
  H         1.8249935726       12.1855213280       20.1141621603
  C         0.3908964387       10.5492940272       25.3821214265
  H        -0.3577215049       14.1600764164       25.3123248984
  C        -0.4661404121       12.3959731790       26.4122987325
  H         3.6735116573       12.8270359347       22.9674508571
  H         2.8948665049       12.9675184430       24.5985934374
  C         4.4787011768       14.3893073479       24.0568583036
  C         2.6623558342        9.4641315227       19.7378281080
  C        -0.1925458354       11.1055735904       26.4933663876
  H         0.6823644289        9.5491040865       25.5173023241
  C        -0.9698657280       12.7448439648       27.6216533857
  H         5.0956644913       13.8778518971       24.7658108018
  H         4.1212473132       15.3090619042       24.5505332618
  C         5.2097570550       14.8704262785       22.8240469570
  C         2.5677903843        8.0803153050       19.5175920445
  C         3.2141485441       10.2449843393       18.5836532303
  C        -0.4268024261       10.4258200085       27.8286168086
  C        -0.9799013248       11.6958284401       28.4889724664
  S        -1.4400608350       14.2013316387       28.4611210040
  H         6.0208137420       15.5687996371       23.2442072348
  H         4.5999958812       15.5339695278       22.1992500628
  C         5.9732976246       13.7953364904       22.0567103106
  N         2.1241395350        7.1500302765       20.4838286871
  C         2.8515211397        7.4541336446       18.3114099829
  C         3.4828669930        9.6637662445       17.3753667488
  H         3.1748326368       11.3273209459       18.5913341405
  C         0.8149217183        9.8147397833       28.5762969574
  C        -1.6540760581        9.4415168170       27.7511029971
  C        -1.3999143102       12.0402709048       29.8004535477
  C        -1.5798864111       13.3755467770       29.9530775357
  H         7.0280251857       14.1346696885       22.0252616732
  H         5.8832655338       12.8144687146       22.5731995625
  C         5.3534700073       13.6760701962       20.6203605972
  S         2.0304911529        5.6849302824       19.7887212392
  N         2.6384198449        6.0960273096       18.3137187064
  C         3.1558389568        8.2603028722       17.1886430844
  H         3.8084289960       10.3847050788       16.6277108517
  H         1.1236743580        8.8208831091       28.3513968572
  H         0.4469157721        9.7419396574       29.5393553097
  C         1.9649867480       10.7466845280       28.6500921926
  H        -1.4450166500        8.7013884835       27.0672508440
  H        -1.7912021496        8.8335948403       28.6438002933
  C        -3.1037634705       10.0720053204       27.3405546735
  H        -1.4523021317       11.2041420713       30.5009925360
  C        -1.7744419984       14.1919158801       31.1334111725
  H         4.5005453257       14.3245050437       20.4845570319
  H         4.9235968242       12.6372738264       20.6211453742
  C         6.5552953955       13.8943096293       19.5329442920
  C         3.3589781220        7.5035911898       16.0198291783
  H         2.3420218521       10.8249097663       27.6454454364
  H         1.6327291276       11.6269108647       29.1466074923
  C         3.1312338600        9.9934779396       29.4047508097
  H        -3.0325666970       10.8432498610       26.5964318882
  H        -3.5638687644       10.4120388945       28.2442396624
  C        -3.9860003307        8.9202243780       26.8893188385
  C        -1.7597853945       15.5854806987       31.3445817124
  C        -2.0360362360       13.4242049446       32.4562717062
  H         6.1368083959       13.6864681739       18.5548748672
  H         6.9025281364       14.8847700677       19.6049984498
  C         7.7453126285       13.0644023873       19.8073328441
  H         3.2537447809        6.4416143244       16.0664905958
  C         3.7218574245        7.9546486099       14.7607078093
  H         3.6524546734        9.3553782698       28.7188607444
  H         2.7842491651        9.3263885355       30.1971492365
  C         4.1288498772       11.0020974904       29.9921644881
  H        -3.6481769526        8.5833457574       25.9272564642
  H        -3.7826073479        8.2156355331       27.6956346095
  C        -5.4889572436        9.2400905515       26.8846230296
  N        -1.5208978485       16.5830438720       30.2772411530
  C        -2.1149737964       16.1913371639       32.5874550326
  C        -2.3978536432       14.0285576054       33.6779246462
  H        -2.0359601822       12.3623367516       32.4342302746
  H         8.3841810666       13.5611285123       20.5057191896
  H         7.3717168688       12.1346912204       20.2280599311
  H         8.2962061316       12.7969658771       18.9031260263
  S         3.8724403533        9.5818550289       14.2117054244
  C         3.8641141257        6.8946145216       13.7482121215
  H         4.0616823430       11.8059360220       29.2573329189
  H         3.7526226099       11.4907695775       30.8574487017
  C         5.4885500471       10.3709957241       30.2301175164
  H        -5.6701716742        9.9665998427       27.6705356015
  H        -6.0598658653        8.2911601792       27.0789613386
  C        -5.7848262180        9.7495420740       25.4570591921
  S        -1.5740287951       17.9741864927       31.0528342354
  N        -2.1865018421       17.5901670238       32.4697591058
  C        -2.4250516301       15.5337283683       33.7957695729
  H        -2.5797824369       13.4062996763       34.5582991021
  C         4.1545172947        8.8724610894       12.6481210578
  N         4.1171614329        7.5313525346       12.6067351540
  O         3.4747865350        5.7605892860       13.8926796003
  H         6.1405944182       11.1057186243       30.5693961946
  H         5.9277429861       10.1255244252       29.2251156839
  C         5.5139240593        9.2603093190       31.2453751455
  H        -4.9102950155       10.3926793244       25.2162478759
  H        -5.7716595249        8.8726895364       24.7557276517
  C        -7.0294311741       10.6632989229       25.3025784340
  C        -2.7106915200       16.3218919054       34.9426439655
  S         4.6152732047        9.6524635034       11.0522687433
  C         4.0691789287        6.6932194283       11.3958053206
  H         6.4423193463        9.3520756782       31.8149600218
  H         4.6907072454        9.4526692309       32.0129033928
  C         5.3012488199        7.8761108011       30.6869211103
  H        -6.9435099865       11.1116375158       24.2947982246
  H        -7.1091604301       11.5016886923       25.9912402953
  C        -8.2285042685        9.7850344123       25.3339423957
  H        -2.4771834246       17.3670947637       34.8422372910
  C        -3.1947596878       16.0212811112       36.1875783103
  H         4.7974814449        6.9811876528       10.6161457753
  H         4.4953613517        5.6932952252       11.6320441780
  C         2.5376152350        6.5965589105       10.9432593530
  H         5.5618044521        7.9793658597       29.7256860958
  H         4.2829006294        7.4904831702       30.6286777798
  C         6.1418656049        6.8323850793       31.3913210050
  H        -8.2273981312        9.1904266040       24.4071019674
  H        -8.1452945932        8.9557393913       26.0554410177
  C        -9.5895429514       10.4369105192       25.5201683038
  S        -3.7236349523       14.5113386053       36.7413429417
  C        -3.2882888903       17.0826242867       37.2254958688
  H         2.1465698096        7.5205863934       10.7361473948
  H         2.4630244785        6.0275403092        9.9812246254
  H         1.9383504608        6.0642922150       11.6626312558
  H         5.8637617096        6.9183335481       32.4338450697
  H         7.1744061678        6.9580062474       31.2051470452
  H         5.9762958952        5.8229494440       31.0008680699
  H        -9.7863224360       10.5814473710       26.6000967765
  H       -10.3772673900        9.7418771331       25.1367619569
  H        -9.6621380796       11.3786185114       25.0434230601
  C        -4.0718395369       15.3011744316       38.2988034269
  N        -3.8516536107       16.6456719786       38.3317360215
  O        -2.7687504589       18.2392429755       37.0931272212
  S        -4.6433057777       14.4721625007       39.7543472767
  C        -4.0379852996       17.4992955536       39.4527855408
  H        -4.3565694318       18.4751718742       39.1327742932
  H        -4.9361265451       17.2640034199       39.9884557287
  C        -2.8146447761       17.6034713840       40.3548417398
  H        -3.1513829130       17.8245656970       41.4120199630
  H        -2.2456348792       16.7087406123       40.5806859208
  H        -2.1772473204       18.4315121125       39.8878864591
