352
i=
  H         4.5012444378        1.9532489106       12.6874547046
  C         3.6857461560        2.5387952908       12.6443945419
  H         4.0587754485        3.5611616586       12.8050711991
  C         2.9400217238        2.4553404686       11.2881638238
  C         2.7817634401        2.2398339283       13.8679844039
  C         3.8028175142        2.7778525678       10.0708531860
  H         2.0487594957        3.1223825989       11.3106641870
  H         2.4791810190        1.4722580470       11.1591904273
  H         2.0966744765        1.4198858377       13.6714383044
  H         2.1225278291        3.0089181165       14.1321770383
  H         3.4004430283        1.8098412906       14.6302763414
  C         4.5919342790        1.5621404127        9.6025359148
  H         3.2004569536        3.2406073119        9.2653607983
  H         4.5408191697        3.5934428052       10.3628047805
  C         5.3557058689        1.8408774955        8.2721656573
  H         3.9155075477        0.7098719688        9.4066164387
  H         5.2319273250        1.2174910795       10.3877126270
  C         6.5558776277        2.7031078745        8.3758027114
  H         4.7146329781        2.3515106421        7.5536474125
  H         5.5413479835        0.8590567408        7.8337707991
  C         7.7349833183        1.9893603875        8.9637552760
  H         6.7249555669        3.0904533148        7.4232667396
  H         6.3015515961        3.5695486632        8.9032203273
  C         8.9015061358        2.8735799670        9.2996379530
  H         7.9737291560        1.2825602957        8.1621196578
  H         7.4523177308        1.3891545335        9.8505371565
  C         8.5775027943        4.2634860431        9.9102420333
  C         9.4314951728        3.5007685680        8.0183342264
  C         9.9662661855        2.1966291559       10.1644055355
  C         8.8972350588        5.2948295974        9.1084910507
  C         8.0247272222        4.6673320624       11.0859201772
  C         9.4684858555        4.8488137062        7.9427610433
  C         9.8766522152        2.8370398049        6.8737328123
  H         9.4436031070        1.7843618180       11.0097846797
  H        10.2965487004        1.3380515131        9.5817988195
  C        11.1164561551        2.9607604423       10.8327334339
  S         8.5181226687        6.8757993453        9.8436329041
  C         7.9640630721        6.0338439493       11.2156634308
  H         7.7884877139        3.8981359998       11.7937506102
  C         9.9152358648        5.4564593629        6.8233911696
  H         9.8437139474        1.7214898943        6.9419373012
  C        10.3115585509        3.5252909616        5.7714958458
  H        10.6121535147        3.7932420360       11.3860757224
  H        11.5738016611        3.4821003078        9.9604296058
  C        12.2298087147        2.2793268889       11.6915536873
  C         7.6170482309        6.7272404491       12.5052834577
  C        10.3388862110        4.8795595017        5.6342800530
  H         9.8632864944        6.4911827180        6.9081836700
  C        10.7305674529        3.1444022645        4.5171266009
  H        13.1703060035        2.7863195808       11.4853758909
  H        12.3361077663        1.2369959412       11.5660343015
  C        11.9799295047        2.4070334193       13.2239360643
  C         7.7181509111        8.0804703523       12.7775160802
  C         7.2143582304        5.9093771818       13.7096839878
  C        10.6736015641        5.5419543880        4.3734080764
  C        10.9040501095        4.1830879197        3.6596724977
  S        10.8695987986        1.6586416258        3.7937554220
  H        11.7323401389        3.4927395039       13.3516116526
  H        11.0808793573        1.8184917876       13.5451128403
  C        13.1583529536        2.0163053582       14.0496470047
  N         8.0701374173        9.0516317981       11.8594201265
  C         7.4498810012        8.6319886920       14.0412594904
  C         6.9055828959        6.3921133931       14.9203196659
  H         7.0970220667        4.8339888023       13.6680892661
  C        11.9454759767        6.4541151002        4.3289674093
  C         9.4429756885        6.3058433552        3.8604353730
  C        11.1387947550        3.7920026423        2.3510194803
  C        11.2517627223        2.4647460011        2.2746958486
  H        13.6376757671        2.8874646332       14.4286784200
  H        14.0281409128        1.5659926439       13.5360658078
  C        12.9004548590        1.1861176858       15.3426143872
  S         8.0482181087       10.5533903543       12.5577552529
  N         7.6029564940       10.0164917625       14.0741192873
  C         7.0324749111        7.8968916414       15.1534717793
  H         6.5910020331        5.7907616286       15.7164014020
  H        11.7605911420        7.4489805928        4.7313744561
  H        12.3451614886        6.7054007962        3.3441701825
  C        13.2310865308        5.8401709538        5.0006545368
  H         9.1933989843        7.1783101655        4.4505450669
  H         9.6901542964        6.6800440461        2.8138012384
  C         8.2284597983        5.3229306452        3.6312151911
  H        11.2185382808        4.5233991895        1.5276234287
  C        11.5716307357        1.6557514043        0.9956904554
  H        12.5015547520        0.2314939207       15.0696592951
  H        13.8395666562        0.9905945304       15.7153996113
  C        11.9715529981        1.8490600824       16.3482651686
  C         6.7440621662        8.4845710354       16.4179063289
  H        13.0973358281        5.4163105281        6.0194096493
  H        13.5502049048        5.0316831404        4.3660309039
  C        14.5155760265        6.6332315847        4.9198508583
  H         7.7839809157        4.9805593326        4.5291632969
  H         8.3994210618        4.4242786181        3.0307939131
  C         7.1548243009        6.1392605443        2.9870723408
  C        11.6848047941        0.2456731577        0.7612697530
  C        11.9031248569        2.4261593108       -0.2175816795
  H        11.4309335619        1.0839315019       16.8785039041
  H        11.2152633377        2.5373015207       15.9007876912
  C        12.8508746582        2.5489759623       17.4288454675
  H         6.6821434376        9.5028829418       16.3639881016
  C         6.5665781103        7.9611558033       17.7144054192
  H        14.3413114919        7.3934813741        5.7466153091
  H        14.6036346695        7.0812892864        3.9483531888
  C        15.6931619449        5.7034267218        5.1534996616
  H         6.8932312423        7.0057328645        3.5640666953
  H         7.4832578026        6.3839105134        2.0101876696
  C         5.9481433085        5.2813844651        3.0287672006
  N        11.2951674812       -0.6734359113        1.6770972972
  C        11.8220927196       -0.3472388459       -0.4768797673
  C        12.1681647105        1.8385153063       -1.4901362154
  H        12.1221982946        3.4654372739       -0.1059685061
  H        13.6452853733        3.1263697570       17.0276650754
  H        13.3274264750        1.8404279210       18.1698014567
  H        12.3046991525        3.2569179428       18.0832103362
  S         6.4249548249        6.2966721627       18.1910870863
  C         6.4022320922        8.9755062007       18.8123403448
  H        15.6535153041        4.6729426653        4.7829889194
  H        16.4631953590        5.9883431023        4.4581883372
  C        16.2326250307        5.9197521186        6.4945857052
  H         5.5555765047        5.1746279858        4.0196399595
  H         6.2389287885        4.2826695683        2.7308285251
  C         4.8876393295        5.6790589110        2.0162990931
  S        11.2880115577       -2.1416958763        1.1152118477
  N        11.7457134063       -1.6995450556       -0.4339634451
  C        12.1857194572        0.3639723862       -1.5822287377
  H        12.6807734192        2.4056579361       -2.3096129869
  C         6.0849379654        6.9240023705       19.7698391279
  N         5.9827704435        8.2942834676       19.9459859788
  O         6.5662056152       10.2034797723       18.6613565506
  H        16.3648215270        6.9163457394        6.6972710567
  H        15.3877495403        5.8275021205        7.1909621079
  C        17.4747870123        5.0528822093        6.8126050726
  H         5.4116441090        5.5422586869        1.1001928986
  H         4.0973699740        4.9743677765        2.0520167639
  C         4.3312776415        7.1105120785        1.9528885272
  C        12.4477058646       -0.4122116128       -2.7964980525
  S         5.7085227276        5.9844503817       21.2036723874
  C         5.6476649314        9.0665842446       21.1705755832
  H        17.1573322141        4.1621951694        7.3452420709
  H        17.8079817206        4.5912431517        5.8324184283
  C        18.4719545837        5.7434528458        7.6765781711
  H         4.2571019778        7.5346066994        2.8973788948
  H         3.2650602409        7.0206794099        1.6905981232
  C         5.0363775220        8.0998750201        0.9388781000
  H        11.9522032000       -1.4174114011       -2.7773424615
  C        12.9578322042       -0.0920718803       -4.0047356896
  H         4.8305184236        8.4475368930       21.5995865639
  H         5.2118101637       10.0758287299       21.0537832796
  C         6.8334980218        9.1028568079       22.0780436069
  H        18.5737226719        5.3197111385        8.6632474560
  H        18.1528129325        6.8328959216        7.9641847982
  C        19.8787887716        5.7561053493        7.0238530816
  H         6.1702365507        7.9969174065        0.9915825117
  H         4.8172110218        7.8655973034       -0.0840990409
  C         4.5938886870        9.5349865325        1.1370919845
  S        13.5573914345        1.4165815008       -4.5212871386
  C        13.1715626245       -1.2010170404       -5.0134822138
  H         6.3730848157        8.7610557818       23.0072898628
  H         7.0294408545       10.1333046128       22.3080791801
  H         7.7297044981        8.4691024243       21.7896942468
  H        20.2241416400        4.8102171332        6.6606278185
  H        19.8702499423        6.5551516131        6.2729075944
  H        20.6127087040        6.0659135730        7.7850096020
  H         3.4649412625        9.4940874636        1.2582334230
  H         5.0853797268        9.9663542903        1.9953518099
  H         4.7925144445       10.1671871142        0.3028855631
  C        13.9803088183        0.6440921610       -6.0411706148
  N        13.8669276445       -0.6961829528       -6.0483090622
  O        12.8624537165       -2.4120758689       -4.8896998222
  S        14.6473024240        1.4303870977       -7.4744306288
  C        14.1838992845       -1.4990106126       -7.1994376226
  H        14.3664911690       -2.5956321453       -6.8844928083
  H        15.0579788453       -1.1329425621       -7.6409729028
  C        13.0135433212       -1.5472550236       -8.1393776965
  H        12.1460021507       -1.1798846210       -7.5627640555
  H        12.8451881351       -2.4879701969       -8.5612116733
  H        13.1685360683       -0.8100591256       -8.9309154422
  H        -3.5569368757       14.6338944886       16.7361056841
  C        -3.4392390108       13.5135455635       16.7095287709
  H        -4.4679728932       13.3252346475       17.1071149979
  C        -2.1956994652       13.1600815892       17.6332409717
  C        -3.1901108028       13.0534684787       15.2229813170
  C        -2.2275806697       13.7516500915       19.0531334377
  H        -2.1800712122       12.0217877894       17.6768579755
  H        -1.2672998694       13.3935007684       17.1057078538
  H        -2.8551089578       11.9841296567       15.1952665766
  H        -4.1192775327       13.2179394386       14.5861712512
  H        -2.2972089999       13.4332570835       14.7304271474
  C        -2.3038584894       12.6956127805       20.1466079922
  H        -2.9558896532       14.5023471532       19.0900978413
  H        -1.2662475123       14.3030547353       19.0396433800
  C        -2.5763483514       13.1806655081       21.5667719936
  H        -3.1722641706       12.0241177473       20.0581160688
  H        -1.3783633146       12.1100345552       20.1499816369
  C        -1.4185486418       12.6806202298       22.5014235104
  H        -3.5708850679       12.8014883184       21.8543718119
  H        -2.5530900352       14.2856152270       21.4939775764
  C        -0.2581133553       13.5982609834       22.4832353223
  H        -1.8196784444       12.6756145121       23.5119510133
  H        -1.1584460725       11.7101112047       22.1593185099
  C         0.9292502245       12.8835827045       23.2143100960
  H         0.0162988433       13.9623799757       21.4265508860
  H        -0.6652061617       14.4304896582       23.0374163970
  C         1.3022607649       11.5270162511       22.6483270145
  C         0.5861071073       12.2123859698       24.5125735891
  C         2.1546503643       13.7797148254       23.3930540706
  C         1.0759937271       10.4042267043       23.4977908160
  C         1.8040432840       11.1135303941       21.4160332948
  C         0.6542118498       10.8841618623       24.7112284694
  C         0.1061524918       12.9407035468       25.6058862643
  H         2.4385663058       14.2768488328       22.4397844509
  H         1.9754579906       14.5510790142       24.1297372227
  C         3.4237957340       13.0830963315       23.9803477476
  S         1.5758925063        8.8895346166       22.7887662405
  C         1.9117145036        9.7764702050       21.3267123235
  H         1.9810432733       11.9279997202       20.6920385645
  C         0.1454089234       10.3405063031       25.8500951290
  H         0.1764202718       14.0266429794       25.5721397872
  C        -0.3508298180       12.3925570607       26.8017029930
  H         3.6259878504       12.2938378693       23.2386458906
  H         3.1942051734       12.4380889588       24.8816430341
  C         4.7729352431       13.8548791553       24.1395519834
  C         2.4403904939        9.0728688872       20.0541738707
  C        -0.3371183085       11.0360712292       27.0331687816
  H         0.2655466203        9.3351333107       25.8359216083
  C        -0.8172991198       12.9216929728       28.0357925679
  H         5.4164195261       13.1706882923       24.6672946206
  H         4.5362826947       14.7511815340       24.7890389904
  C         5.3399367590       14.2583536721       22.8027573773
  C         2.4805336207        7.7100709316       19.7309851654
  C         2.7164728310       10.0295423622       18.9092410265
  C        -0.8365395447       10.4510973833       28.3166943389
  C        -1.1552912843       11.8883219914       28.9379396714
  S        -1.1512203016       14.4344920352       28.6837004834
  H         5.8763776839       15.1417102972       23.1046964157
  H         4.5801645227       14.5896140751       22.1089378361
  C         6.1361121243       13.2728304708       22.0137387779
  N         2.1542112598        6.7054020410       20.5983234773
  C         2.7869653154        7.2595892158       18.4726946496
  C         3.1423388410        9.5451976039       17.6761830801
  H         3.2031216757       11.0115605361       19.1837045648
  C         0.2163556714        9.7682266644       29.1843652372
  C        -2.0485470659        9.5496140154       27.9312144383
  C        -1.4995468418       12.3372212445       30.2101953130
  C        -1.5953793605       13.7029580631       30.2379157442
  H         7.1490697874       13.2686476141       22.2781716891
  H         5.7954034835       12.2194457979       22.0791370280
  C         6.1422738678       13.6722823489       20.5559592517
  S         2.2077518400        5.2829373493       19.8080426980
  N         2.8241860545        5.8600297289       18.4837884705
  C         3.1099133800        8.0951080109       17.4081107028
  H         3.3064214266       10.1587546732       16.8312889614
  H         0.5149865961        9.0518979028       28.4757746695
  H        -0.2313816552        9.3860142243       30.0961693146
  C         1.4990252405       10.4609096703       29.4863673512
  H        -1.7703781044        8.9756953390       27.0520222230
  H        -2.2843196935        8.7645652754       28.7828239243
  C        -3.3501039024       10.3170169910       27.7040684224
  H        -1.4384607566       11.6640754302       31.0353092881
  C        -1.8425817786       14.4485568786       31.4597567526
  H         5.8536654632       14.6806524763       20.4460866656
  H         5.4171959420       13.0868074030       20.0315368200
  C         7.5211668520       13.4137873855       19.9064989946
  C         3.3548514599        7.4721062687       16.1492199417
  H         1.9653773720       11.0151261541       28.6758179015
  H         1.3260910416       11.1950369184       30.2402785069
  C         2.5935105917        9.5521232113       29.9558259072
  H        -3.1608238246       11.0385809385       26.9259123074
  H        -3.7582348741       10.7408169957       28.6511663257
  C        -4.4792868998        9.4357978059       27.2049865686
  C        -1.8502810644       15.8771108093       31.6190195921
  C        -1.9628523017       13.7156054435       32.7687244644
  H         8.3619051889       14.0027007558       20.2625646297
  H         7.7584179014       12.3256778268       20.0198252837
  C         7.3099899369       13.7235557185       18.3715420034
  H         3.0229112945        6.4545466815       16.1605011730
  C         3.6776629214        8.0115956808       14.8766210407
  H         2.6028394618        8.6592479162       29.3219998076
  H         2.3214725283        9.1576936063       30.9530390815
  C         3.9701546007       10.1632701573       30.0109068586
  H        -4.1690430338        8.7905463099       26.3611358148
  H        -4.7335547706        8.6425089925       27.9643149811
  C        -5.8200646769       10.1609033852       27.0083709112
  N        -1.6375076792       16.7650593047       30.5290052152
  C        -1.9966676489       16.5692197090       32.8589751061
  C        -2.2942337910       14.3917880687       33.9512733815
  H        -1.9389745980       12.6615602906       32.7870957025
  H         7.7606163790       14.6514990831       18.0120068565
  H         7.8219520178       13.0762528914       17.6685662395
  H         6.2426733800       13.8146236301       18.0660879292
  S         4.0832580768        9.6447618109       14.4915755526
  C         3.7550589579        7.0982658316       13.6811108793
  H         4.1531344583       10.7908646180       29.1296704603
  H         4.1196395112       10.7709947145       30.8287998925
  C         5.0870914077        9.1573145045       30.2364491265
  H        -5.7371471877       11.2318509813       26.8120551240
  H        -6.4959991515       10.1765999997       27.8477467016
  C        -6.6557103601        9.5103353385       25.8817027067
  S        -1.6226974995       18.2844772872       31.0916113395
  N        -1.9328325036       17.9367095491       32.6104997687
  C        -2.4030741255       15.9049915091       34.0055601376
  H        -2.5024071046       13.7137907996       34.8274764431
  C         4.1798742439        9.1164292562       12.8160332917
  N         4.1116078484        7.7845040210       12.6004873563
  O         3.6762879042        5.8667283451       13.7935348305
  H         5.6045104359        9.5062504449       31.1575338888
  H         5.8386442196        9.3216112009       29.4511802934
  C         4.6819086026        7.6725669887       30.5528846072
  H        -5.9839716835        9.1105483180       25.1621681053
  H        -7.2539345613        8.6188255868       26.2857152984
  C        -7.5956133979       10.5226806710       25.1327571768
  C        -2.7296534158       16.6389710463       35.1505825887
  S         4.6523291689       10.0862557350       11.4700449708
  C         3.9843202997        7.1186592197       11.2562594880
  H         3.9310637908        7.5826995381       31.3692451281
  H         4.1058934661        7.2808631654       29.7479514447
  C         5.9243838876        6.7981215641       30.8093611787
  H        -7.0737227211       10.8052310632       24.2403017482
  H        -7.7931520961       11.3247300286       25.8691265879
  C        -8.9236616265        9.8367836291       24.8040919156
  H        -2.5859983922       17.6889417755       35.0134128853
  C        -3.1317490312       16.3306280654       36.4004030621
  H         4.4876885823        7.7190852965       10.5351210647
  H         4.4523680139        6.1276544074       11.2342402769
  C         2.5355065530        6.9424848846       10.8917766027
  H         5.6092825371        5.8409372126       31.1518226630
  H         6.4523603470        7.0877731031       31.7205767095
  C         6.9183313505        6.7235274823       29.5785244451
  H        -9.2286668227       10.2403328805       23.8674596105
  H        -8.5828518544        8.8419424494       24.4530030035
  C        -9.9345107062        9.8516821565       25.9065583313
  S        -3.6338960435       14.7552432458       36.9334649772
  C        -3.0620448034       17.2938194749       37.5441724331
  H         2.3489254159        7.6565425113       10.1030456337
  H         2.3548079351        5.8939396306       10.5276375426
  H         1.8332152070        7.0468733456       11.6926173871
  H         7.2655194256        5.8004545835       29.2250982217
  H         7.8207174520        7.2028529285       29.7793343771
  H         6.6585422352        7.3589440562       28.7662638338
  H        -9.6476877901        9.2058704463       26.7028799232
  H       -10.8168175415        9.3503614384       25.6388830614
  H       -10.0523915287       10.8382584108       26.2687495019
  C        -4.0261766301       15.4824708328       38.5161498754
  N        -3.7193065082       16.7893368022       38.5971562161
  O        -2.7118337474       18.4629170660       37.3517471753
  S        -4.8849425101       14.8168760384       39.8574858911
  C        -3.9674856643       17.5718563359       39.7828370926
  H        -4.2610172651       18.5326000133       39.3588726687
  H        -4.7668261815       17.2303263746       40.3872864662
  C        -2.6835610634       17.7535588379       40.5073139105
  H        -1.9617130112       16.9850642928       40.2744028255
  H        -2.3102032930       18.7997086661       40.3246347379
  H        -2.8908320195       17.6256292171       41.5531920157
