352
i=
  H         3.0275568167        2.8355843888       13.7098405387
  C         3.3839070089        2.0013021605       13.0333072776
  H         2.9805328922        1.0582235717       13.4087262509
  C         2.8384935246        2.0434511379       11.6094601390
  C         4.8671730367        2.0295517260       13.2022626731
  C         3.8296318530        2.3037850579       10.4032111606
  H         2.0558457917        2.8134180919       11.4879516614
  H         2.2793272403        1.1067733306       11.3911914368
  H         5.3461783466        1.2158714534       12.5921699890
  H         5.0833994213        1.8862675664       14.2078406685
  H         5.3092951855        2.9647108899       12.8962382930
  C         4.4264853129        1.0606711079        9.8040907592
  H         3.2196565671        2.7920703193        9.5191644761
  H         4.5742065428        3.0982369259       10.6609039727
  C         5.2291934876        1.2075206780        8.4999911611
  H         3.6487627649        0.4125865486        9.5004377948
  H         5.0494968839        0.4992799236       10.4774440800
  C         6.4502824103        2.1217912834        8.6178727364
  H         4.6567533741        1.7658771957        7.7174455289
  H         5.4647168127        0.1442500609        8.2033902732
  C         7.6204736244        1.4631308232        9.2524006853
  H         6.7179007792        2.3994198015        7.6225343476
  H         6.2920037588        3.0199538883        9.1975238551
  C         8.8862819414        2.2863998362        9.4942972364
  H         7.9954762000        0.6852416924        8.6017379014
  H         7.4481759213        0.8913092232       10.1631571843
  C         8.5466336045        3.6009842372       10.1364679756
  C         9.2742016057        2.9249999752        8.1847352829
  C         9.9649979739        1.5252774709       10.3317988397
  C         8.7422001099        4.6511582948        9.2811663974
  C         8.1913596562        4.0088819157       11.4500786235
  C         9.1677714707        4.2925597447        8.0222334585
  C         9.7894306491        2.2786995199        7.0829427026
  H         9.6199588533        1.1630249387       11.2989789167
  H        10.3281303382        0.7346492116        9.7332185875
  C        11.2179431970        2.3591379411       10.5132774195
  S         8.4515905995        6.1790110134       10.0590956828
  C         8.0954234453        5.3754790130       11.5762750752
  H         8.0700468088        3.3170990312       12.1876301441
  C         9.6111454712        4.8961423817        6.8964321135
  H         9.8710055984        1.1894410546        7.1488072781
  C        10.1712545856        2.8845037962        5.9083230105
  H        11.0678095676        3.4427009001       10.6892247795
  H        11.7493395169        2.3349666105        9.5797027524
  C        12.1306879235        1.9875593591       11.7141316885
  C         7.7561974019        6.1180229967       12.8609483902
  C        10.0797430218        4.2366238427        5.7410112442
  H         9.4857509812        5.9529692420        6.8390228362
  C        10.6404588274        2.5304577652        4.6623612170
  H        12.8268999459        2.8697039156       11.7579006115
  H        12.7232573337        1.1387145330       11.6484215019
  C        11.3199947713        1.9483810719       13.0049420828
  C         7.8046793136        7.5788471106       13.0558015238
  C         7.2783314765        5.3779323226       14.0550055335
  C        10.5889001371        4.9813723746        4.5301537485
  C        10.9054778821        3.5972776340        3.8699696794
  S        11.0126561417        0.9846426687        3.9594758564
  H        10.4543978044        2.5728791477       12.8382414597
  H        11.1163952501        0.8791626265       13.0915074242
  C        12.1750018826        2.5510891266       14.1894583858
  N         8.3160892574        8.4034864664       12.0831846675
  C         7.4463232895        8.1627627174       14.2405507283
  C         6.8182500976        6.0388684827       15.1921515851
  H         7.0078649510        4.3782618780       14.0042730275
  C        11.8836316278        5.8654918476        4.8587847652
  C         9.5423841668        5.7479989635        3.6673037343
  C        11.3004697663        3.1629945257        2.5953449973
  C        11.3861039465        1.8143042473        2.5001527720
  H        11.9551486242        3.5945288137       14.5885877304
  H        13.1527835630        2.6179477735       13.7833377588
  C        12.1064004678        1.5480965107       15.3410674544
  S         8.0639598372        9.9707834280       12.6377113550
  N         7.6264882687        9.5610521373       14.1831204131
  C         7.0486224727        7.5054117558       15.4220805803
  H         6.4515628225        5.4834940704       16.0004263252
  H        11.6437401457        6.7749442520        5.4909372229
  H        12.2517463842        6.2956145390        3.9048934653
  C        13.0108476207        4.9869135346        5.4579345456
  H         9.1548367121        6.5452518122        4.2735538687
  H        10.1024591539        6.3754193396        2.9529278402
  C         8.5689384247        4.8521928029        3.0450254056
  H        11.5212434619        3.9165427981        1.8300760658
  C        11.7194782850        1.0327005366        1.2731253314
  H        11.1320068403        1.6190026908       15.8043836824
  H        12.2024157600        0.5469407059       14.8886582512
  C        13.2511056999        1.8160943080       16.3970026084
  C         6.7479675248        8.2087355824       16.6106065106
  H        12.7231753661        4.6312541930        6.4535489752
  H        13.2616407027        4.1003584837        4.8020892677
  C        14.2851750536        5.7609049133        5.6021523954
  H         8.2376706487        4.0063596040        3.7210553948
  H         8.9975712862        4.3611871178        2.1891768445
  C         7.2920637277        5.5524120551        2.6095571824
  C        11.8457105722       -0.3689355854        1.1362918011
  C        11.9748213548        1.7976273202        0.0164870529
  H        13.9393819907        2.5708164308       16.1182148842
  H        14.0034053389        0.9947729200       16.4703855225
  C        12.6170743399        2.2224876595       17.7731052662
  H         6.8547181554        9.3084196885       16.5513259484
  C         6.5445300523        7.7900811939       17.9017733526
  H        14.2677766914        6.4998311968        6.2992513590
  H        14.5230067892        6.2728646503        4.6752257824
  C        15.4682652717        4.8999784901        5.9647295907
  H         6.8860752258        6.0350950087        3.5172394627
  H         7.4255640950        6.4171570727        1.9066114349
  C         6.2154353025        4.6137449915        2.1044866854
  N        11.5697190562       -1.3341180966        2.1476534098
  C        12.1562516679       -0.9376107300       -0.0932373190
  C        12.3839852844        1.2435231460       -1.1490813251
  H        11.6684216962        2.7807358282        0.0715600101
  H        12.4102509961        3.2706307875       17.7778349076
  H        13.4082470697        2.2435398633       18.5987348032
  H        11.7402829383        1.6538740704       17.9420287108
  S         6.3854895728        6.1626679077       18.3778425278
  C         6.4030090101        8.7928197647       18.9570744469
  H        15.3133509655        4.4247135604        6.9863029858
  H        15.4487066099        4.0819894681        5.2272983664
  C        16.8345172813        5.4986977755        5.8302346744
  H         5.7140968998        4.0749313377        2.9082311320
  H         6.7301005118        3.9237997462        1.4717959913
  C         5.2023256446        5.4157471461        1.2138148086
  S        11.7322750092       -2.8068314410        1.4754001193
  N        12.1484596917       -2.3207290062        0.0066055884
  C        12.4997378481       -0.2034058778       -1.2569414730
  H        12.2452216996        1.8813972005       -1.9619833442
  C         6.0212296524        6.7814560530       19.9542639881
  N         6.0565762204        8.1601803899       20.0686587109
  O         6.5930777568       10.0413067069       18.7552091671
  H        17.2948518169        5.1596686454        4.9270386550
  H        16.9330892479        6.5576898865        5.7250395997
  C        17.6454785691        5.2450272678        7.1072524596
  H         5.6952519218        6.0990626792        0.5357611508
  H         4.5682011439        4.7442351260        0.6728755354
  C         4.2398732393        6.2970290910        2.1506764479
  C        12.7436661884       -0.9028711910       -2.4797876698
  S         5.6972657714        6.0494059268       21.4947598314
  C         5.8210789225        8.8595637156       21.3331930910
  H        17.1298742219        5.6213328149        7.9441769062
  H        17.7063430901        4.1310125067        7.1801022790
  C        19.0845795862        5.8287447348        7.1577785718
  H         4.5584920575        6.1712705598        3.1573875381
  H         3.2431221478        5.8251796534        1.9950620890
  C         4.1342575886        7.7243353847        1.7724140139
  H        12.3608307992       -1.8639495036       -2.4180182520
  C        13.2782203109       -0.5803276732       -3.7116715267
  H         5.0365817816        8.4564207658       21.9956164419
  H         5.3612749202        9.8325946109       21.0630559879
  C         7.2307855188        9.1189218372       21.9160978122
  H        19.4909538530        5.3905133716        8.0486081298
  H        19.0288855236        6.9762285119        7.1164348948
  C        20.0914688465        5.5351894168        6.0295259699
  H         5.0664430623        8.1893748622        1.4409705914
  H         3.5654312225        8.0475063081        0.8786357880
  C         3.5986593734        8.4586330627        3.0709325491
  S        13.8239918242        1.0116739391       -4.1444249565
  C        13.3332290230       -1.6545955001       -4.7422654528
  H         7.6150685991        8.2331966590       22.4513903118
  H         7.2796243168        9.8676993298       22.6550229242
  H         7.9154351403        9.3801735221       21.1365302679
  H        20.4267738645        4.5111685737        6.1977193093
  H        19.6378173593        5.6163551558        5.0057377888
  H        20.9528425037        6.2151895441        5.9532719879
  H         3.0709210567        9.3965668607        2.8323644510
  H         3.0465827030        7.8444343447        3.7692771843
  H         4.5013330159        8.6135745396        3.7052047619
  C        14.1749011389        0.2475930739       -5.7424870729
  N        13.9343509971       -1.0488436772       -5.8241154481
  O        12.9594360674       -2.8138268633       -4.6075024278
  S        15.0081130058        1.1085014340       -7.0062835273
  C        14.1711318288       -1.8094073557       -7.0558425481
  H        14.5247405790       -2.8073255593       -6.7803374238
  H        15.0453614049       -1.4946369906       -7.5958299032
  C        12.9996429708       -1.7215958544       -8.0660462928
  H        12.3089219707       -2.5336065194       -7.8244738875
  H        13.1888106969       -1.9313501563       -9.1271089486
  H        12.3489568858       -0.8312270674       -8.0477567382
  H        -3.1012624617       14.5965582697       15.4974868702
  C        -3.3948200035       13.9029998864       16.3215953542
  H        -4.3012163093       14.3031381000       16.7770416954
  C        -2.2107005410       13.8872125932       17.3618500656
  C        -3.6258109623       12.5021534820       15.6970513815
  C        -2.6664091044       13.5208319808       18.7641167715
  H        -1.3993981247       13.1287973758       16.9835576630
  H        -1.7433231798       14.9067681444       17.4756748189
  H        -4.3668119655       11.8585708292       16.2203109509
  H        -3.9616903817       12.7473631578       14.7019504971
  H        -2.7160953218       11.8986940877       15.5106152176
  C        -1.5872674911       13.0610559683       19.8072056699
  H        -3.4144917771       12.7263759394       18.6498661598
  H        -3.1879450414       14.3722875867       19.2029232184
  C        -2.2675553473       12.8854057245       21.1356760056
  H        -0.9831654602       12.1929070555       19.5618234453
  H        -0.8609291472       13.8835309920       19.8595074374
  C        -1.3092386922       12.4741802390       22.3104068890
  H        -3.1500403132       12.1432358173       21.0234162369
  H        -2.7284951653       13.8284627017       21.3081480498
  C        -0.1158191358       13.3665137603       22.5391303942
  H        -1.8272819278       12.5080840323       23.2226191397
  H        -1.1090649695       11.3960128736       22.2475907169
  C         1.0863456688       12.6720007219       23.3455278476
  H         0.1992328240       13.9911161458       21.6625557177
  H        -0.4689863332       14.1754615366       23.1755614831
  C         1.4707793779       11.3572837880       22.6925541536
  C         0.6152998428       11.9405094840       24.6053172819
  C         2.1801510608       13.6239996007       23.4582493988
  C         1.2293907010       10.2660531759       23.4520963608
  C         2.1539744370       10.9735705638       21.5263858915
  C         0.6596438777       10.6085356119       24.6830031975
  C         0.0544651516       12.5679733586       25.7360899559
  H         2.3024967997       13.8692451300       22.4095593990
  H         1.7717727386       14.4856349305       23.9135544770
  C         3.5713000880       13.2743591594       24.0306323439
  S         1.4867325242        8.8442265130       22.6503568464
  C         2.1323766264        9.6693066516       21.2912967189
  H         2.5907120789       11.7288466204       20.8467530775
  C         0.2639436523        9.9534496809       25.7921743556
  H         0.0220320122       13.6254485886       25.7981233227
  C        -0.2488565212       11.8724215903       26.8754414882
  H         4.0609341666       12.4830312947       23.3927681001
  H         3.4420352513       12.8766231721       25.0918541574
  C         4.6655057303       14.3639637288       24.1278818179
  C         2.5428387037        8.9392875705       20.0568842486
  C        -0.1887029719       10.5226181970       26.9963646965
  H         0.3090812356        8.9550612144       25.7376584279
  C        -0.6135281368       12.1732201955       28.1513188871
  H         5.4751749954       14.0710361589       24.7973097950
  H         4.3049855635       15.2493833997       24.5985576872
  C         5.2226780907       14.6743861818       22.6728137105
  C         2.4879158626        7.5609970447       19.7971831657
  C         3.0923439491        9.7530845471       18.9806635827
  C        -0.4298681004        9.7993859641       28.2609019978
  C        -0.7790354880       11.0779019372       28.9912758133
  S        -0.8955988962       13.6161185808       28.9580025367
  H         5.7662793476       15.6437826470       22.5306523895
  H         4.3020767382       14.7918704155       22.0066368412
  C         6.1837869050       13.5177527991       22.2902904669
  N         2.2053237034        6.5781223563       20.7696566024
  C         2.9232864601        7.0062938444       18.6079345879
  C         3.3939222295        9.2158364945       17.7409817055
  H         3.2637550795       10.8272429390       19.2266657522
  C         0.7288000834        9.0272101320       28.8665425293
  C        -1.6917419732        8.9333092248       28.0538884168
  C        -1.1230458615       11.4622954936       30.3097082524
  C        -1.2271119761       12.7997895013       30.3822037602
  H         7.2136108205       13.7484559165       22.5766451343
  H         5.8844740618       12.5408681564       22.6627603751
  C         6.1631359155       13.4357943568       20.7240255355
  S         2.2238304643        5.1288618947       20.0665068317
  N         2.7214769742        5.6037828274       18.5902118359
  C         3.3281883452        7.7595872467       17.4680085956
  H         3.6679887964        9.8827036087       16.9428186245
  H         1.1548838204        8.3472965715       28.0950050452
  H         0.3115815743        8.3443147512       29.6062858921
  C         1.7867472793        9.9499586768       29.4622182837
  H        -1.3913132480        8.1646823158       27.2972753309
  H        -1.8871988283        8.4227935982       29.0705432683
  C        -2.9378369401        9.7183764962       27.7263412544
  H        -1.4031444950       10.7249578640       31.0447287629
  C        -1.5446202291       13.5199922402       31.6985625044
  H         6.0044162794       14.4403954823       20.3464626238
  H         5.3377921929       12.7905433190       20.3281220889
  C         7.4704215269       12.8054276444       20.1274235960
  C         3.6143816128        7.1001290809       16.2426098696
  H         1.9032391159       10.7749657574       28.6903733973
  H         1.4565360136       10.3982130596       30.3883953871
  C         3.1435167407        9.2818698645       29.7513962992
  H        -2.7894918901       10.2944760680       26.8332877765
  H        -3.1685274330       10.4507037133       28.5406848801
  C        -4.0620841169        8.7292182878       27.4247693982
  C        -1.5521264221       14.9438012650       31.8999534039
  C        -1.7866550802       12.7097396314       32.9691444129
  H         8.2487391584       13.1476792366       20.6626980765
  H         7.4220140297       11.7087264421       20.3116977609
  C         7.5766686347       13.1147305282       18.6776852757
  H         3.3923347522        6.1002752973       16.2459491259
  C         3.8076538042        7.4925413851       14.9678050515
  H         3.5340234206        9.1155425081       28.8076659968
  H         3.1467128503        8.3325168735       30.2844969728
  C         4.0420974243       10.1949673464       30.5136329125
  H        -3.8753450333        8.1721327736       26.5060481860
  H        -4.1282305499        7.9630032872       28.1944582765
  C        -5.5110944098        9.2143173174       27.3705190610
  N        -1.3242767127       15.8739747147       30.9067943374
  C        -1.9163018903       15.5075641298       33.0765476622
  C        -2.1604645312       13.3168786104       34.2030082737
  H        -1.5363960010       11.7249945863       33.0254072947
  H         7.8208864882       14.1792273387       18.5462206498
  H         8.2917419210       12.3830787688       18.2562384684
  H         6.7067518990       12.8442171051       18.1678276271
  S         4.0468138530        9.1154804827       14.4549630890
  C         3.7762337493        6.5256429939       13.8653840421
  H         4.0276132281       11.1681525191       30.0702600584
  H         3.7349155663       10.2049569150       31.5402059881
  C         5.4800076288        9.7969007887       30.5304398838
  H        -5.6421094148        9.8409090380       28.2497456106
  H        -6.1729598466        8.3638408027       27.3907307219
  C        -5.8738132742        9.9802154133       26.0706911245
  S        -1.2454671551       17.3679955258       31.5505090314
  N        -1.8281936073       16.9355721264       33.0327796367
  C        -2.3228961466       14.7966085395       34.2413493108
  H        -2.1846832674       12.7281280290       35.0718523473
  C         4.2864029855        8.4214457702       12.8284677397
  N         4.0943454689        7.0817735553       12.6991996202
  O         3.5001698887        5.3399944793       13.9646655107
  H         6.1464989945       10.6570248423       30.7954383977
  H         5.7946855039        9.6852952659       29.4931068154
  C         5.8669064659        8.6540068441       31.5063880234
  H        -5.2741363212       10.8899477122       26.2387574467
  H        -5.4324686468        9.4801935072       25.2426046724
  C        -7.3420194081       10.2402387533       25.9121659341
  C        -2.4999230709       15.4764804998       35.4807118597
  S         4.7399564438        9.2154089237       11.3195283522
  C         4.0453075565        6.3491862447       11.3803593996
  H         6.5177199338        9.0770477427       32.2362910761
  H         5.0648768217        8.3181012402       32.0547942096
  C         6.5532473348        7.5374073438       30.7689432629
  H        -7.3427253323       10.9349445264       25.0767036808
  H        -7.7934047437       10.7492902513       26.8030999379
  C        -8.1887234231        9.0287581933       25.4933898247
  H        -2.2366100733       16.5078911738       35.5201986556
  C        -3.1371034028       15.1631757074       36.6914250628
  H         4.3914195186        6.8538295977       10.4982656908
  H         4.4822709710        5.4084390503       11.5198863067
  C         2.5895777515        6.2796200662       10.9297776895
  H         7.5263767285        7.8133991738       30.4119185438
  H         5.9070578861        7.2744219424       29.9595933648
  C         6.8157630274        6.1892533884       31.5439528093
  H        -7.6947744074        8.5555180813       24.6205481095
  H        -8.3866512488        8.3089211355       26.3374767623
  C        -9.6370871771        9.3737835684       25.0526761004
  S        -3.8668500606       13.6047240626       37.1232472287
  C        -3.2785468448       16.1917781542       37.7126379935
  H         2.2158319604        7.2887306738       10.7017335796
  H         2.4790736198        5.5881327201       10.0536285754
  H         1.9349730469        5.8830108412       11.6941939022
  H         7.2740639200        6.5861078795       32.4501021071
  H         7.6941624164        5.7192703272       31.0340621214
  H         5.9462074844        5.4940607432       31.6004862159
  H        -9.5687274131       10.3388699585       24.6426875971
  H       -10.2731860659        9.3816186203       25.9833231095
  H        -9.9516116267        8.7072606314       24.2291325767
  C        -4.2906686189       14.4830680495       38.6335587237
  N        -3.9523028522       15.7819901099       38.7603929493
  O        -2.7647875330       17.3219886830       37.6114051037
  S        -4.9321109145       13.7148053740       40.0437053621
  C        -4.0967807461       16.5353066618       39.9735940358
  H        -4.2051918547       17.5793572408       39.7200866227
  H        -4.9421546403       16.1888509387       40.5446239849
  C        -2.7557655490       16.3129696089       40.8404552445
  H        -2.4755245799       17.2266995809       41.3749611345
  H        -2.9807616440       15.6710281605       41.6233848806
  H        -1.8710279009       15.8911165288       40.3280222159
