352
i=
  H         2.6237249873        3.5315052274       12.8491477755
  C         3.1292121820        2.5647955127       12.5391033783
  H         2.7969908818        1.7968176790       13.1467739535
  C         2.6999065217        2.2683008908       11.0973915849
  C         4.6320258988        2.6308437890       12.8603983728
  C         3.5647674611        2.8486881461        9.9894903819
  H         1.7129929960        2.6989375010       10.9215389783
  H         2.6378073022        1.2197735001       10.8329366860
  H         4.7827288377        2.5433427867       13.9385433158
  H         5.2414454029        3.4866111809       12.5002169483
  H         5.1305504134        1.7892582930       12.4810526395
  C         4.4865794786        1.7612755407        9.3286285388
  H         2.9798199497        3.2068228510        9.1381270015
  H         4.0468319345        3.7029364842       10.3250202858
  C         5.4456119612        2.4006102671        8.2385908441
  H         3.8891123592        1.0080450108        8.9175046179
  H         5.0601096258        1.3767907745       10.1008378151
  C         6.7141286849        3.0757891281        8.7638898160
  H         4.8631169901        3.1326419428        7.6826217481
  H         5.6806404042        1.6509926011        7.4825353198
  C         7.9532276070        2.2148366340        8.9869275828
  H         6.9788175765        3.7483982521        8.0416624681
  H         6.4352049864        3.7200322524        9.6154591129
  C         9.2405718670        3.0449950347        9.1940701330
  H         8.0913344231        1.6636563244        8.0436546005
  H         7.6547904134        1.5351099803        9.7938572170
  C         9.0801589445        4.4284768814        9.8268982433
  C         9.7707324506        3.7425148762        7.9790272487
  C        10.3383047254        2.3065695196        9.9542602950
  C         9.3592410168        5.5149075423        9.0532117286
  C         8.5078773094        4.8746877159       11.0311805221
  C         9.8262407966        5.0765865289        7.8317403488
  C        10.1264727195        3.0570422121        6.8405761394
  H         9.9996671012        2.1576009923       11.0319173972
  H        10.5989611590        1.3686834068        9.5983947444
  C        11.6602410785        3.0387713499       10.1190338245
  S         9.1709421058        7.0470344269        9.7596337511
  C         8.4737667254        6.2533360535       11.1727454940
  H         8.2569522964        4.1574533826       11.7691433039
  C        10.2090358323        5.5715434110        6.6198489818
  H         9.9388360923        1.9414645645        7.0184374270
  C        10.6184296912        3.5458341369        5.6759189950
  H        11.4008870256        4.0011911202       10.4974539070
  H        12.1669556532        3.3008612488        9.2292941637
  C        12.5781695647        2.3869561810       11.0824104601
  C         8.0250402399        6.9584474804       12.4579128081
  C        10.6893835969        4.8588762054        5.5047287679
  H        10.2684437294        6.6496310728        6.4929358286
  C        10.9676277353        3.0141635775        4.5007700675
  H        13.5281357821        2.8621346694       11.1433141926
  H        12.8533231268        1.4024203249       10.6830610938
  C        11.9966298612        2.2259703143       12.4808979352
  C         7.9598210744        8.3415210717       12.6562466562
  C         7.4814033223        6.1352958545       13.5778856026
  C        11.1976744286        5.4300222450        4.2348055515
  C        11.3035844523        4.0515161116        3.5895584140
  S        11.0721860739        1.3814863175        3.8838101606
  H        11.2342799939        3.0092071321       12.4277248603
  H        11.5437821293        1.2388093409       12.5945325473
  C        12.9929562875        2.4152298064       13.5771118221
  N         8.3216215982        9.3301805808       11.6922424420
  C         7.6503485978        8.9619532274       13.8652532682
  C         7.1262369424        6.7148599848       14.7805351360
  H         7.2783214019        5.1164300252       13.4634821314
  C        12.5228812059        6.2568332724        4.4153026433
  C        10.1174134041        6.2515928956        3.4720493643
  C        11.7625580300        3.4862072673        2.3815069137
  C        11.5386501092        2.1507399555        2.3987045248
  H        13.3270050653        3.4179481923       13.4598746958
  H        13.7840122742        1.7184713315       13.4474076128
  C        12.4593706240        2.1753861285       14.9769044331
  S         8.4206757700       10.7800162610       12.3779104743
  N         7.8877600389       10.3884412781       13.8199979814
  C         7.1809326502        8.2025883330       14.9606979150
  H         6.7622696247        6.0783164336       15.6173388157
  H        12.3035944603        7.1868826070        4.9870467437
  H        12.8667880208        6.6557910280        3.4294195296
  C        13.6632361295        5.4141295254        5.0718818425
  H         9.9358744036        6.9883344795        4.1755780209
  H        10.4758044660        6.9327153134        2.6552837828
  C         8.8453069083        5.5207779240        2.9095097591
  H        11.9819714097        4.1741803527        1.6103268837
  C        11.7749491884        1.3159541997        1.1901774270
  H        11.7354049610        2.9319413290       15.2083623417
  H        12.1206544575        1.1934756131       15.0744148763
  C        13.6574475472        2.2397082973       15.8533508559
  C         7.0271084816        8.9414914669       16.2115381735
  H        13.4285520032        5.3815052675        6.1457217755
  H        13.8563113874        4.4495459894        4.7064936502
  C        14.9240070429        6.2348815940        4.9628334466
  H         8.2785677498        5.1469683037        3.7376418096
  H         9.0346806373        4.6055161510        2.3158197921
  C         7.7861650245        6.4794729630        2.3230446830
  C        11.7117719812       -0.0905264109        1.1371211536
  C        12.2150073939        1.9496341506       -0.0328569219
  H        14.4254203795        2.8440303502       15.4279572578
  H        14.0531087281        1.2712469409       16.0623961435
  C        13.2663183270        2.7798880681       17.2452983335
  H         7.4896839500        9.8776082170       16.2100546250
  C         6.6173361911        8.5258197662       17.4908902022
  H        14.9715326031        7.1245699568        5.5416747772
  H        15.2230612256        6.5206536229        3.9370493946
  C        16.0668098505        5.3449996893        5.5204139892
  H         7.4768183085        7.3235389990        2.9879080828
  H         8.2014793012        6.9398587728        1.4530950022
  C         6.5479410065        5.8002014957        1.7539173172
  N        11.2421613277       -0.9205982829        2.1687369102
  C        12.1274943711       -0.8217521153       -0.0000662132
  C        12.4974095076        1.2294900448       -1.1704311529
  H        12.2133014955        3.0281409218       -0.1361931560
  H        12.1544779940        2.8453490025       17.3077748272
  H        13.6416434451        3.7963226964       17.4480536985
  H        13.6158915584        2.1560380445       18.1427998311
  S         6.2679873024        6.9414543413       17.9783785004
  C         6.4735486056        9.5518454935       18.5430635832
  H        15.7435796786        4.4031786576        5.9962526167
  H        16.6339190353        5.0796584949        4.6196652963
  C        16.9940724576        6.1791178796        6.4208109319
  H         6.0321462310        5.1253719115        2.5003103914
  H         6.9334838105        5.1368688811        0.9749325104
  C         5.6042563456        6.7531011700        1.0508045735
  S        11.5001534831       -2.4790614628        1.7577361306
  N        12.0807668860       -2.2094455072        0.2923761319
  C        12.5524852077       -0.2608308691       -1.2413453870
  H        12.7562397489        1.7437203562       -2.0480821057
  C         6.0391828319        7.6160172544       19.5818171667
  N         6.0035421423        8.9769762994       19.6222238040
  O         6.5567578933       10.7960652773       18.3162434407
  H        17.4634408020        6.9913366606        5.9762342604
  H        16.3454601783        6.6258984962        7.1449727462
  C        17.9109867222        5.3119525355        7.2662591133
  H         6.1336132105        7.5671015855        0.5452723646
  H         5.1245533736        6.1095761255        0.3094833285
  C         4.5662951867        7.2926395253        2.0613928184
  C        12.8413385853       -1.1038289527       -2.3712068063
  S         5.5918702944        6.6449151019       21.0062480710
  C         5.9144228434        9.7134136588       20.9170233749
  H        17.3858650368        4.9264715389        8.0666061038
  H        18.1483621181        4.4142940704        6.7022004580
  C        19.2002261435        6.0351562594        7.8542270974
  H         5.0676031015        7.6050329956        2.9252341953
  H         3.9997182652        6.3927412749        2.4181043984
  C         3.6841504663        8.3578431734        1.4193219272
  H        12.6932285499       -2.1663594274       -2.1233681813
  C        13.3263843831       -0.7734931774       -3.5839060299
  H         5.1067128037        9.2803550440       21.5676558603
  H         5.5937479661       10.7000778480       20.7525582824
  C         7.2160677066        9.7577720634       21.7377541405
  H        19.6289164717        5.4270058118        8.6525909752
  H        19.0822845409        7.0430182346        8.1779879984
  C        20.2214044457        6.0623796207        6.6592192383
  H         3.5614121767        8.0622138927        0.3627055557
  H         2.7005044570        8.3205370148        1.8311028210
  C         4.2779487610        9.7270472031        1.5769302815
  S        13.8575033170        0.8037424655       -4.1699326087
  C        13.4103955548       -1.8925789800       -4.5536129462
  H         7.7782006697       10.7388259471       21.8652806813
  H         7.9678743083        9.0139044412       21.3784991256
  H         6.8942687512        9.5609871152       22.7494028182
  H        19.9081969887        6.8503568171        6.0509008327
  H        21.2209567335        6.3600956201        7.0743437546
  H        20.4425748184        5.1257303915        6.1475094161
  H         3.6044073186       10.2203935579        2.2741163557
  H         5.3110569053        9.6288924907        1.9573430084
  H         4.1620347262       10.4010366398        0.7885917571
  C        14.1851151591       -0.0591842960       -5.6968807828
  N        13.8646502203       -1.3846667784       -5.7291774414
  O        13.0417758735       -3.0061438114       -4.4070394510
  S        14.7818867611        0.6401971159       -7.2208523755
  C        13.9208995268       -2.2737632959       -6.8855210629
  H        14.0249246298       -3.3255942338       -6.5539963036
  H        14.8030058724       -2.0352210154       -7.4929049510
  C        12.7131503139       -2.0953905120       -7.8326719908
  H        12.8297105401       -1.3348095103       -8.6151050382
  H        11.7768904887       -1.8590803100       -7.2485320892
  H        12.4128232314       -2.9896241230       -8.3363873361
  H        -1.7591705801       14.9842362440       16.6200888672
  C        -2.7887160412       14.5678534266       16.6180448568
  H        -3.5211685969       15.3799136315       16.3449508333
  C        -2.9747280292       13.7958786895       17.9295746929
  C        -2.8722073274       13.5491165606       15.5402507803
  C        -1.6772814213       13.0960995381       18.4082703569
  H        -3.3658599815       14.4785735277       18.6171906970
  H        -3.7054904018       13.0050025841       17.8025478213
  H        -2.1121264670       12.7565136950       15.6647766102
  H        -3.8590299786       13.0659207589       15.5157433724
  H        -2.7010877786       14.1118418411       14.6727379695
  C        -1.0006059078       13.8404762046       19.5131227200
  H        -0.8887420027       13.0659068666       17.5942831436
  H        -1.9843416048       12.0991600675       18.7659277344
  C        -1.8149344312       13.7226048008       20.8328102778
  H         0.0267265593       13.4557339665       19.6980264904
  H        -0.9137827982       14.8669637966       19.1893172731
  C        -0.9594815352       13.0966446536       21.9942766326
  H        -2.7679082572       13.1638967707       20.7309730416
  H        -2.0647022532       14.6782306608       21.2350029214
  C         0.0924372744       13.9123513362       22.4247429326
  H        -1.6266222704       13.1176251605       22.7842266529
  H        -0.7288971241       12.1443670052       21.7315940687
  C         1.2777222004       13.2907603246       23.2463561523
  H         0.5362977496       14.4093806899       21.5400243596
  H        -0.3059318221       14.7538032977       23.0153144008
  C         1.6771071325       12.0033686003       22.5731697283
  C         0.8530810225       12.5456776490       24.4554814927
  C         2.4092454536       14.2982198184       23.6023464943
  C         1.5848120612       10.8873262376       23.3592247401
  C         2.0950292063       11.7617067864       21.2951055557
  C         1.0199454092       11.2001496309       24.5857590946
  C         0.3028708104       13.0618057444       25.5971834646
  H         2.4257195847       15.0568426244       22.8501725184
  H         2.1156979714       14.8989864721       24.4730342152
  C         3.7251848803       13.6102083117       23.9061492044
  S         2.0110066100        9.4392610372       22.5649174425
  C         2.2416534361       10.3813800423       21.1542368809
  H         2.2780825762       12.5942052443       20.6120279898
  C         0.6345311698       10.5052612660       25.7204464126
  H         0.3248146883       14.1524128789       25.6384284549
  C        -0.0202840526       12.4288534937       26.7488511594
  H         4.1660803545       12.8976146379       23.1837620467
  H         3.4882815131       13.0264532282       24.8359158610
  C         4.7468517312       14.5985053623       24.3655259524
  C         2.5849252245        9.7439213789       19.8293119643
  C         0.1437123595       11.0951512386       26.8972839046
  H         0.6328563193        9.4532245022       25.7212346786
  C        -0.4698024514       12.8218250250       28.0160565319
  H         5.4941115292       14.1494677017       25.0243639129
  H         4.2619472783       15.3348606921       24.8189330416
  C         5.3176532003       15.2814492076       23.0761396709
  C         2.6819805574        8.3650175057       19.6755107146
  C         2.7220658372       10.5792363214       18.5933406136
  C        -0.1935056125       10.3422583067       28.2017041808
  C        -0.4541208758       11.7178821441       28.8536630072
  S        -0.8474498974       14.3014594456       28.8116107775
  H         6.0073535340       16.0661802997       23.3463183378
  H         4.4140312653       15.5806178103       22.4543310866
  C         6.2211088878       14.3800252228       22.1632832503
  N         2.3992327957        7.4783661486       20.6019015347
  C         2.8980964626        7.8115859174       18.4048748307
  C         3.0711484484       10.0410732616       17.3330974350
  H         2.6302882365       11.6314326606       18.7129003009
  C         0.9218870695        9.5048946124       28.8887422960
  C        -1.4539275801        9.5350370563       28.2560458448
  C        -0.9380713617       12.0919838681       30.1505471351
  C        -1.1471965504       13.4380553466       30.2607683187
  H         7.2240954682       14.9137386409       22.1505800839
  H         6.3898043387       13.3712861966       22.4371681575
  C         5.6554751849       14.3554445078       20.7309294008
  S         2.3726295010        5.9827018095       19.8569589786
  N         2.5586076661        6.5226592565       18.3516542544
  C         3.0945000969        8.5563025856       17.2386064900
  H         3.0293123685       10.6950489653       16.3827832272
  H         1.2172903575        8.7053377827       28.2957272602
  H         0.5986005832        8.9965425417       29.8009411321
  C         2.1758097970       10.3502598820       29.3745505941
  H        -1.4139150582        8.5382264549       27.8452105797
  H        -1.7720139390        9.3603024169       29.2546043354
  C        -2.6419693542       10.2742279766       27.5690185499
  H        -1.0865955038       11.3475830902       30.9863291919
  C        -1.4421831743       14.2019237685       31.5357055083
  H         5.4862123293       15.3251119519       20.3237534442
  H         4.6367066676       13.9943341868       20.7868043688
  C         6.5133736757       13.4472544056       19.8025858822
  C         3.4405181943        7.7301016101       16.0385750347
  H         2.4885214294       11.0572427492       28.6428988662
  H         1.8150974416       11.0501671020       30.1232678731
  C         3.2841627904        9.3514658695       29.8290677597
  H        -2.3789889464       10.5328983253       26.5768609511
  H        -2.9644857891       11.2455210369       28.1430206327
  C        -3.8831874817        9.3790584089       27.5535537099
  C        -1.4864054213       15.6140413765       31.7004971787
  C        -1.7497026019       13.4393654261       32.7551838920
  H         6.7907278414       12.5201513187       20.3261416348
  H         5.8885458218       13.0875847608       19.0521360771
  C         7.6730195811       14.0290309242       19.1894491031
  H         3.2095134934        6.6588408586       16.0935506433
  C         3.7824607856        8.1854300179       14.7663175496
  H         3.7099207498        8.8061297063       29.0129020400
  H         2.7722141394        8.5336158621       30.4763149075
  C         4.5183580065       10.1515888747       30.3550817965
  H        -3.6857871689        8.5326638804       26.8569406486
  H        -4.0650599031        8.8823320912       28.5339078176
  C        -5.1828541981       10.1076933579       27.2524579320
  N        -1.3113401041       16.4764841224       30.6445433361
  C        -1.8655912777       16.2110725681       32.8833285460
  C        -1.9392621915       14.0915663615       33.9649455384
  H        -1.7772729156       12.3655413306       32.7168711227
  H         7.4420701558       14.9646270445       18.5708755501
  H         8.3870276259       14.2494501553       19.9530472796
  H         7.9518655244       13.2325772364       18.5726571588
  S         4.1361271158        9.7500319951       14.3365011927
  C         3.9745661366        7.1785097304       13.7141744156
  H         4.5818063478       11.0167441642       29.7002871784
  H         4.2507785784       10.5051884363       31.3865847900
  C         5.8336680727        9.3734837589       30.1785469631
  H        -5.1158501227       10.9858981873       27.8797231059
  H        -6.1834845361        9.6484213698       27.6023449900
  C        -5.4102249829       10.5214165742       25.7533509436
  S        -1.6411986070       17.9775611413       31.1971222379
  N        -1.9018540075       17.6112853856       32.7435346387
  C        -2.0068901765       15.6038123582       34.1159678242
  H        -1.9966551473       13.5950333289       34.9144289354
  C         4.4087770294        9.1022756846       12.7183716666
  N         4.2087851146        7.7618097264       12.5508835451
  O         3.9130479010        5.9485410446       13.9066080536
  H         6.7553493211        9.9754242048       30.4112962875
  H         5.9872369149        9.2385654697       29.1165363459
  C         5.8676744420        8.1718761010       31.0724074774
  H        -4.5557477120       11.2612192333       25.5320710790
  H        -5.3945933664        9.6591485054       25.0785459474
  C        -6.6950624177       11.2896814055       25.4573081561
  C        -2.2013051824       16.4511430395       35.2832171989
  S         4.8127629831       10.1129932834       11.3407586543
  C         4.3652139424        6.9465315478       11.3467618789
  H         5.7759563416        8.5808883693       32.0797076919
  H         4.9658029167        7.5177239044       30.9280572852
  C         7.1321903769        7.4704957278       30.9242189926
  H        -6.2790144674       11.9904262319       24.7727948810
  H        -7.0956798648       11.8136013012       26.3721282296
  C        -7.7020756587       10.5215163103       24.6627905581
  H        -1.8490920569       17.4165204277       35.2616770382
  C        -2.7942907931       16.1758064329       36.4669846206
  H         4.9862938110        7.5454680515       10.5904377581
  H         4.8946269948        6.0601745911       11.5769352814
  C         3.0298651020        6.6408092374       10.7505750377
  H         7.1982386223        6.7820929267       31.7778481924
  H         7.9264979446        8.2175130194       31.0113761239
  C         7.3760511834        6.9709108971       29.5323309267
  H        -7.7584823049       10.8919705077       23.6077502153
  H        -7.4346863026        9.4785953189       24.6100671912
  C        -9.0356144850       10.6390104940       25.2180839155
  S        -3.4678354798       14.7488762884       37.1402753953
  C        -2.8675764469       17.3446822197       37.4167266409
  H         2.3662667733        7.5107135926       10.5790062880
  H         3.3200112039        6.2526462931        9.7933633054
  H         2.5265657138        5.8555272747       11.3439952921
  H         6.3315708088        6.7868090319       29.1528634841
  H         7.7456987162        5.9566684399       29.6238351452
  H         8.0143290757        7.6536421503       28.9131040927
  H        -9.2556690500       11.6742418186       25.5795375413
  H        -9.1587118886       10.0425149260       26.1074521744
  H        -9.7208396794       10.3570002306       24.4706056683
  C        -3.9825672617       15.6651005013       38.5193316475
  N        -3.5906897878       16.9630768197       38.4925123679
  O        -2.4600100253       18.4843897445       37.2587996842
  S        -4.8087694158       15.1439926287       39.9684091013
  C        -3.9003758407       17.9788972451       39.5051147413
  H        -4.1909042866       18.8791182634       38.9639998542
  H        -4.7592501101       17.7971827108       40.1225020805
  C        -2.6810319238       18.2233230258       40.3275900682
  H        -2.8910817004       17.4861619945       41.1253281255
  H        -1.6668269245       17.9949375226       39.8453068086
  H        -2.5847891210       19.2271961946       40.8026501942
