352
i=
  H         4.1233003358        1.2429539413       12.6702587918
  C         3.7419535680        2.2678300167       12.6769746289
  H         4.5335724302        2.9710936950       12.5943901872
  C         2.9395312353        2.3643018767       11.3074066660
  C         2.7382276088        2.4522634975       13.8834628186
  C         3.8683015656        2.7641990940       10.1520202239
  H         2.0877732208        3.0579187556       11.3544422949
  H         2.4162901327        1.4649700315       11.0261605252
  H         3.2117129115        2.9749833176       14.7108033197
  H         2.5661085554        1.4524387150       14.2693698721
  H         1.8047918344        2.9486723271       13.6813847211
  C         4.4023784730        1.5819861636        9.4279567096
  H         3.3354391723        3.2802356365        9.4005049673
  H         4.6015005772        3.4778151345       10.4422209468
  C         5.0844887480        1.7780532753        8.1236418080
  H         3.6029458470        0.9081131620        9.2623516282
  H         5.0886160763        1.1322933236       10.1898051805
  C         6.3847788358        2.6287314085        8.1448574886
  H         4.4754171129        2.3543845457        7.4152854777
  H         5.3452558578        0.8405985781        7.4614819412
  C         7.5560360036        2.0479369689        8.9092390003
  H         6.5820407005        2.9381104760        7.1106548739
  H         6.1544862575        3.4798587330        8.7406057813
  C         8.8177141020        2.9502189011        9.1713334533
  H         7.9735756602        1.0923608212        8.4526332067
  H         7.2640279921        1.7291872147        9.9175704252
  C         8.5419447313        4.2337009252        9.9482907636
  C         9.2644049222        3.6842209655        7.9057541442
  C        10.0708637186        2.1248812192        9.7685961113
  C         8.6826460189        5.3380778507        9.1140835187
  C         8.0120294365        4.5639091424       11.2449430116
  C         9.1468129204        5.0704489250        7.8432255768
  C         9.6967290565        3.0729669548        6.7028304754
  H         9.6820532809        1.6932831622       10.6404829639
  H        10.3468101749        1.3106291273        9.0293452121
  C        11.2611520271        3.0125249200       10.1612988183
  S         8.3649217489        6.8459290677       10.0148522665
  C         7.9028757420        5.9261392212       11.4747587088
  H         7.7577442593        3.6688960130       11.8340359680
  C         9.5236861236        5.6969613297        6.6736799815
  H         9.6661354383        1.9806663444        6.7680136894
  C        10.0401291079        3.7070811024        5.5401630247
  H        11.0129661092        4.0817858938       10.2163543445
  H        11.8836514885        3.1763455792        9.2000198356
  C        12.1909399218        2.5705497295       11.3274750747
  C         7.4933783251        6.5948096085       12.7119982267
  C         9.9736414401        5.0957428133        5.4642560077
  H         9.5624107473        6.8068602489        6.7008001856
  C        10.4301126844        3.3215517561        4.2162628816
  H        13.1486127380        3.0517316902       11.2352854223
  H        12.3267491820        1.5548739053       11.0934863559
  C        11.5400678152        2.7035015965       12.6595739563
  C         7.5939442601        7.9413701733       13.0185255841
  C         7.0644968490        5.6396927174       13.7900390082
  C        10.4702612748        5.7219920905        4.2305488190
  C        10.7019866846        4.4290946135        3.4477530901
  S        10.6974492249        1.7758785211        3.4226510144
  H        11.3561177977        3.7632076178       12.8128568668
  H        10.4963754588        2.3460978231       12.6245938730
  C        12.4073865733        2.0257375545       13.7636830391
  N         8.0067869293        8.9256854887       12.1837981347
  C         7.1944343406        8.4269547238       14.2496149818
  C         6.7459784778        6.1443344648       15.0505354364
  H         7.1016037620        4.5723162432       13.6551390590
  C        11.7433234574        6.5500376866        4.3314985903
  C         9.3515394003        6.5696500949        3.6041784089
  C        11.0398245281        4.0863692794        2.1664388586
  C        11.0576340728        2.6810510464        1.9378181199
  H        13.4350743784        2.1529589078       13.5545361518
  H        12.2113296243        0.9690728692       13.6765288221
  C        11.9873457273        2.4478428997       15.1902917426
  S         7.9467772173       10.3105614153       12.9394772767
  N         7.3059461600        9.8583583635       14.3285815930
  C         6.8060059370        7.5747669105       15.3299450743
  H         6.6231320997        5.3962769097       15.8630835085
  H        11.6518920991        7.3360278411        5.0782420789
  H        12.0188719058        7.0077749244        3.3926734079
  C        12.9659115563        5.8076394819        4.8935368589
  H         8.8885556610        7.2210134876        4.3296860113
  H         9.7596635536        7.0947001544        2.7446498830
  C         8.1047579164        5.7467037742        3.0285953132
  H        11.2225167885        4.9147261703        1.5151762278
  C        11.3660861384        1.9617287377        0.6536113082
  H        11.8681637873        3.4718218136       15.2993204813
  H        11.0138827990        2.1356205835       15.4615864218
  C        13.1548126885        2.1278722808       16.1655477565
  C         6.5615642554        8.1914818251       16.6353608880
  H        12.6467345698        5.3352537253        5.8733221667
  H        13.2819619408        4.9059957627        4.3029175170
  C        14.2876794022        6.5811398014        5.0980166440
  H         7.7040251186        5.0865109403        3.7598575380
  H         8.4459127436        5.1172829946        2.1951724821
  C         7.0195595780        6.6215183588        2.4020600698
  C        11.4513316676        0.6058570582        0.4751798154
  C        11.6915596044        2.8382631030       -0.5713826746
  H        14.1230185113        2.5577509662       15.8558978798
  H        13.2844310777        1.0740931879       16.1294324622
  C        12.8582702726        2.7537994865       17.4969472584
  H         6.5389177672        9.2521186108       16.6237476779
  C         6.3294719590        7.6945353572       17.9028777511
  H        14.1598882809        7.4600335752        5.6939828487
  H        14.6670780882        6.9423039314        4.1658247939
  C        15.3418780203        5.5920929035        5.6358653171
  H         6.6143935454        7.4720835984        2.9464429329
  H         7.5128004459        7.1353353413        1.5953110656
  C         5.7310101971        5.8130283588        2.1099846877
  N        11.2554298228       -0.3237354016        1.4931378712
  C        11.8106967587        0.0174471848       -0.6941015173
  C        11.9240256156        2.2326784475       -1.8038967189
  H        11.9919588962        3.8490181103       -0.4402855900
  H        13.7929723931        2.9629783554       18.0950226483
  H        12.3882982148        1.9586203620       18.1231748955
  H        12.2692579420        3.6687448059       17.5923280239
  S         6.3292537505        6.0641054772       18.3461560171
  C         6.1616704283        8.6997549707       18.9393296571
  H        14.8899347889        5.0463188615        6.4949271130
  H        15.6297109348        4.9606402166        4.8248821756
  C        16.5737186864        6.4506650545        5.9706461404
  H         5.1409646662        5.7751791504        3.0089991147
  H         5.8671474760        4.8410248867        1.6442118651
  C         4.8772689258        6.6022618693        1.0752472799
  S        11.3722538528       -1.8396328910        0.8045591397
  N        11.7272184776       -1.4014632752       -0.6916248609
  C        11.8921862874        0.7502637236       -1.9452302568
  H        11.9833256108        2.8690718142       -2.6692366369
  C         5.8607194185        6.7271635909       19.9287695889
  N         5.8517212524        8.0544888961       20.0863971177
  O         6.1836090383        9.9148348469       18.7802816601
  H        17.0161255730        6.7145653512        4.9873229330
  H        16.2878423143        7.3046924577        6.4913269970
  C        17.4066070712        5.5427009670        6.9902959447
  H         5.5966303042        6.9986641094        0.3315933547
  H         4.1748421615        5.9769901107        0.6224613517
  C         4.1653725333        7.7495971874        1.7675961203
  C        12.2116367869       -0.0235742418       -3.0576877219
  S         5.2636226777        5.7802882142       21.2839955071
  C         5.8622833760        8.8176633152       21.3613571699
  H        17.0322985372        5.7255094316        8.0290206333
  H        17.2212139241        4.5172226981        6.8513990795
  C        18.8821129456        5.8193813876        6.7992973432
  H         4.9622211375        8.2907584483        2.2538690881
  H         3.4815115084        7.4316092051        2.5772653934
  C         3.6226031025        8.8723632465        0.8813528717
  H        12.0021670479       -1.0837259074       -3.0401494101
  C        12.8928055586        0.2536211827       -4.2499216592
  H         5.2191791651        8.3112552120       22.1639294090
  H         5.3301952325        9.6759777183       21.2076726861
  C         7.2844286723        8.9749987087       21.9990297652
  H        19.4625063532        5.4498681147        7.6278068447
  H        19.0760994395        6.8641944074        6.6732239801
  C        19.4503292200        5.1560465642        5.4833540439
  H         4.5397416542        9.1576949981        0.3577969008
  H         2.7807185872        8.6162969001        0.2490348338
  C         3.3354598981       10.2321758666        1.6602620190
  S        13.5738037036        1.7367779435       -4.6278998989
  C        13.0553142947       -0.7902128553       -5.2696636394
  H         7.9836444550        9.3204823890       21.2456622904
  H         7.6257294207        8.0747292547       22.4201445646
  H         7.1786040164        9.7056580517       22.7918861408
  H        18.8518046306        4.3078730833        5.1910015160
  H        19.4878565458        5.7433961036        4.5988325163
  H        20.4156790598        4.8124962072        5.6561607954
  H         3.0499576338       10.8982305750        0.8358949572
  H         2.4790746287       10.0983442378        2.2480885244
  H         4.1697869517       10.5584536359        2.2167363947
  C        14.2065938674        0.9783897815       -6.0672032744
  N        13.7977154256       -0.3134739525       -6.2734346467
  O        12.6110156753       -1.9489696069       -5.2263739383
  S        15.2849336750        1.6682037296       -7.2208988601
  C        14.0409293560       -1.1036915714       -7.4758636820
  H        14.2467519635       -2.1327241733       -7.0524957594
  H        14.9378662282       -0.9273804662       -8.0848132860
  C        12.7785310395       -1.1135266661       -8.3385836519
  H        12.8291022640       -1.9384433441       -9.0537061732
  H        12.5944982996       -0.1255439738       -8.7137169612
  H        11.8377739876       -1.3500861817       -7.8049757400
  H        -3.6127323982       14.7034818023       16.3612069147
  C        -3.6117098663       13.6386690260       16.3953236679
  H        -4.5167080658       13.2279668529       16.7738294358
  C        -2.4593439276       13.2934073680       17.2822346870
  C        -3.3643100112       13.2043679365       14.9540934764
  C        -2.5319626982       13.9226969055       18.6725784592
  H        -2.4908241047       12.2266014120       17.3666152059
  H        -1.4879768643       13.5024808216       16.7943548494
  H        -3.6792245794       13.9359927134       14.2428879403
  H        -2.3194240896       13.1645543163       14.7093990870
  H        -3.7506403414       12.1741611347       14.7308960780
  C        -1.3713737766       13.5001786121       19.5887846887
  H        -3.4580618754       13.6148887186       19.0865654706
  H        -2.7708543735       14.9517970184       18.6974314522
  C        -1.8708459781       13.3771774189       21.0605201626
  H        -1.1356649577       12.5305765224       19.3323630851
  H        -0.5253197815       14.1220541385       19.5061608152
  C        -0.8505820949       12.7206194272       21.9619834782
  H        -2.8236434132       12.7626475958       21.0550931301
  H        -1.9878121594       14.3734175012       21.3885385766
  C         0.2714088001       13.7267792642       22.3244013281
  H        -1.3760058059       12.3266065802       22.8626976339
  H        -0.5064166905       11.8527804873       21.4143564321
  C         1.3967091461       13.0555112384       23.1896459890
  H         0.7357243529       13.8771857630       21.3226080146
  H        -0.1253198840       14.6389499595       22.7646616285
  C         1.8379347645       11.7483245696       22.5114032877
  C         1.0328904898       12.3437184797       24.4736636029
  C         2.6017215644       13.9989010700       23.2118099799
  C         1.6794860193       10.6213484133       23.2950133988
  C         2.2137039459       11.3999050944       21.1951373748
  C         1.0898677541       10.9963572037       24.5219686295
  C         0.4296359773       12.9072525161       25.5498163950
  H         2.8916580586       14.2435640062       22.2075584839
  H         2.2218763441       14.9196646027       23.5718561449
  C         3.8301134926       13.5063043916       24.0341507564
  S         2.0378143983        9.1778372971       22.4759831507
  C         2.3595675788       10.0561791913       21.0726069115
  H         2.2766300647       12.1263325737       20.3955284273
  C         0.5792786028       10.3395273494       25.5661829147
  H         0.5680710769       14.0373506836       25.5046902054
  C        -0.0617592249       12.2596743060       26.6341062974
  H         4.1329014212       12.4974222625       23.8643459703
  H         3.6107357580       13.5861305109       25.1047518368
  C         5.0820979157       14.3326240144       23.9037445239
  C         2.6458389260        9.3479769299       19.7849198904
  C        -0.0173823422       10.9567217914       26.7291892644
  H         0.5585574147        9.2762247660       25.6531401787
  C        -0.6531503827       12.5976689514       27.8480699446
  H         5.8710142426       14.0967582853       24.6862435107
  H         4.8054754804       15.3091637101       24.2085228102
  C         5.7443787243       14.5078188857       22.5628958055
  C         2.4788000671        7.9942472419       19.3772734336
  C         3.1552970301       10.2219660096       18.6860042878
  C        -0.5116567184       10.2324472004       27.8766375869
  C        -0.9130220362       11.4861930079       28.6197074847
  S        -1.0414431173       14.1202731882       28.6635140391
  H         6.5769956753       15.1674435281       22.8590426987
  H         5.0750452487       15.0186814686       21.9011648990
  C         6.3662127852       13.2372530026       21.9620473545
  N         1.9679984075        6.9826736665       20.1820102340
  C         2.7700284156        7.4468075417       18.1614992927
  C         3.2635946857        9.6640574796       17.4046821127
  H         3.4384336448       11.2503479348       18.8125250115
  C         0.6389830809        9.4681550140       28.6074898880
  C        -1.6102361590        9.3074336779       27.4520869904
  C        -1.5742534859       11.7969361421       29.8409594173
  C        -1.4878894582       13.1705526199       30.0606511466
  H         7.4216571443       13.3702387338       21.7223138978
  H         6.2399416740       12.3364751137       22.6508548185
  C         5.7101826434       12.9401656859       20.6778511631
  S         2.1641442952        5.5131148467       19.4865798362
  N         2.6313102452        6.0620610442       18.0422451230
  C         3.1425375681        8.2450966798       17.0504624659
  H         3.4898910573       10.2635332158       16.5373746969
  H         1.1787338717        8.7839168295       27.9184663393
  H         0.1234617909        8.8548835116       29.3672154322
  C         1.7738981495       10.3849400082       29.2308393259
  H        -1.3596600555        8.5484852606       26.7321461704
  H        -1.8517533660        8.7373211022       28.3710742376
  C        -2.9616148552        9.8615360880       26.9568571223
  H        -1.6809194336       11.0606613293       30.6029586425
  C        -1.8143510057       13.7530843828       31.4090942364
  H         4.6374016793       13.1669532692       20.8320891431
  H         5.7394815128       11.9030433421       20.3139486267
  C         6.1288040676       13.8004421267       19.5165998689
  C         3.4832427394        7.5585102093       15.8182463892
  H         2.2994126118       10.8294675666       28.3792505132
  H         1.4000222765       11.2699789599       29.7923871305
  C         2.8802277767        9.5455825558       29.9474460326
  H        -2.8299009136       10.3249022230       26.0013996503
  H        -3.2447208225       10.5822721420       27.6920057753
  C        -4.2463811870        9.0249642237       26.8465228014
  C        -1.7994244944       15.1240927447       31.6598555925
  C        -1.8980994466       12.8522377987       32.6345790860
  H         5.3630704231       13.6760022516       18.7087531436
  H         6.3079425412       14.8682009455       19.7243526506
  C         7.3630552916       13.2290670077       18.8470152934
  H         3.3676085072        6.5232561387       15.8531360764
  C         3.6983839847        7.9972649190       14.5302554168
  H         3.0306031410        8.6304610171       29.3320683393
  H         2.4758150037        9.1512181011       30.9128965945
  C         4.1786217068       10.3206231541       30.2097109108
  H        -4.2818982875        8.4455449363       25.9132754932
  H        -4.2980606217        8.3002930460       27.6934254895
  C        -5.4168587300        9.9769925286       26.7641005946
  N        -1.6003418731       16.1338412824       30.6904979915
  C        -1.9623561671       15.6515350249       32.9300988098
  C        -2.0570063435       13.3987113960       33.9106994475
  H        -1.9005895395       11.7603179930       32.5370119047
  H         7.1486946179       12.8092343262       17.9061828150
  H         8.1987903451       13.8876223386       18.7092327968
  H         7.8253194084       12.3871912983       19.3532255139
  S         4.0014810437        9.5688644243       14.0500560634
  C         3.7429667620        6.9446042148       13.4109444107
  H         4.1628264727       11.2261481687       29.6667131665
  H         4.3126306076       10.5160207714       31.3121639681
  C         5.3693071688        9.3883146732       29.8096421464
  H        -5.1071032573       10.7939076120       26.1110794011
  H        -5.5629485867       10.5216539499       27.6688650009
  C        -6.7910264308        9.4178284822       26.4063403607
  S        -1.8872577112       17.6119276205       31.4318161579
  N        -2.1736688370       17.0392298900       32.9222698509
  C        -2.1130960581       14.8640872293       34.1372899460
  H        -2.1036627178       12.6742448480       34.7722815808
  C         4.2221060587        8.8097725931       12.4021105352
  N         4.0437174236        7.5019018870       12.2733760487
  O         3.4895346114        5.7606829111       13.5300246218
  H         6.3354290900        9.8840655663       29.9716314429
  H         5.1222818735        9.1179475368       28.7797746636
  C         5.6428956793        8.1314478317       30.6677112655
  H        -6.8610283233        8.3503075282       26.0529607199
  H        -7.4917632617        9.3758340569       27.2294208657
  C        -7.5138438402       10.1709981921       25.1788031550
  C        -2.5160004768       15.4824337463       35.3865309317
  S         4.6616556822        9.8483021994       11.0187078239
  C         4.1126705503        6.7337050831       11.0529193026
  H         6.1229279074        8.3932649983       31.6036460836
  H         4.7494868021        7.5123765648       30.8867531579
  C         6.5422257127        7.0977734341       30.0407182679
  H        -6.8086080695       10.1581675153       24.4243623069
  H        -7.7512216970       11.1729932471       25.6069085909
  C        -8.8507163764        9.4865519719       24.9387691446
  H        -2.2621115075       16.4940872507       35.4336960935
  C        -2.9611414782       14.9784258362       36.5808706718
  H         4.7234658838        7.1996817319       10.3020740936
  H         4.5766743496        5.7984028060       11.2464396550
  C         2.6823653085        6.4332022685       10.5372382828
  H         7.5122810242        7.4318728225       29.6334532743
  H         6.0625543768        6.8460935858       29.1311965077
  C         6.7235007489        5.7439459966       30.8505323947
  H        -9.2593868996        9.8140045679       23.9722341684
  H        -8.7220414813        8.3857296145       24.9027908719
  C        -9.8674701377        9.8725272972       26.0070652383
  S        -3.3356975113       13.3751422448       37.0064774808
  C        -3.1812329280       16.0188508133       37.6735328306
  H         2.7251135938        5.9170241397        9.5398415863
  H         2.1051218642        5.9117368380       11.3062607260
  H         2.2903736833        7.3936379736       10.2883883370
  H         7.0894209429        5.9710679968       31.8149063785
  H         7.3657499993        5.0494826789       30.3159675718
  H         5.7132227162        5.3248032162       30.9871290337
  H       -10.3717513265        9.0043764100       26.4659644720
  H       -10.6583344421       10.5305198769       25.6012187806
  H        -9.4116381093       10.4088968793       26.8315945050
  C        -3.8866767712       14.1060946713       38.5413073167
  N        -3.7636599026       15.4270061912       38.7378342368
  O        -2.7630281323       17.1875770351       37.5940083696
  S        -4.5153570470       13.1319141770       39.8764367233
  C        -4.2266990141       16.1519429673       39.8935623294
  H        -4.6014418418       17.1414264265       39.6425919842
  H        -5.0944516809       15.6968947587       40.4116557818
  C        -3.1574724371       16.4588096557       40.8523209854
  H        -2.7965180335       17.4709403760       40.7830042658
  H        -3.4541806546       16.3682233341       41.9252931023
  H        -2.3496134159       15.7973756887       40.6948061069
