352
i=
  H         3.0823346819        2.3020159659       13.8272662056
  C         3.7875058696        2.0947781183       13.0255549016
  H         3.9070435179        1.0461927540       12.9805918462
  C         3.2178605492        2.5503995343       11.7479884102
  C         5.0286360097        2.8414926863       13.3900753930
  C         4.0750494233        2.7276690254       10.4870741466
  H         2.8643249969        3.6088737384       12.0830993256
  H         2.3483797378        1.8314580772       11.6446151287
  H         5.1182280801        3.0138596763       14.4445279422
  H         4.9862985704        3.8625703298       13.0446975342
  H         5.8999886240        2.3369755251       13.2131280082
  C         4.6863529383        1.3680736698       10.0535996853
  H         3.4656839158        3.0447754094        9.6155854868
  H         4.8796463246        3.4402352230       10.6519314348
  C         5.5125836431        1.4285335222        8.7233134910
  H         3.9293629076        0.6025353990        9.8935309573
  H         5.2530175918        0.9732331626       10.8645078062
  C         6.7086176940        2.3997681946        8.6887043096
  H         4.8839609339        1.7452314600        7.9250399752
  H         5.8868336843        0.5035872085        8.4075306950
  C         7.8445362015        1.7190299144        9.4236097236
  H         6.9291135416        2.5822902569        7.6385665470
  H         6.4018293294        3.3513737891        9.0278263101
  C         9.0933981871        2.5428688261        9.5719533191
  H         8.1953438416        0.8111756091        8.9449449611
  H         7.4418198873        1.4563482469       10.4330667953
  C         8.6920110380        3.8531559384       10.2293382343
  C         9.5623900357        3.2383603373        8.3235602223
  C        10.2007801566        1.8809679035       10.4181207722
  C         8.9565293530        4.9704855112        9.4564214421
  C         8.1188927706        4.2221698852       11.4186200847
  C         9.4428669470        4.5590693586        8.2538612655
  C         9.9763893308        2.6172379718        7.1602319259
  H         9.8555192745        1.2513275126       11.1986838781
  H        10.7612537054        1.2187970258        9.8324815553
  C        11.3086257130        2.8688666675       10.9385060964
  S         8.5918608080        6.4666899186       10.1998144463
  C         8.0876332014        5.5835210055       11.6064712344
  H         7.9210410969        3.4410324297       12.1324835694
  C         9.8218164590        5.1957220774        7.1139530293
  H        10.1459488385        1.5526301817        7.3013863536
  C        10.3762235792        3.2602290228        6.0282651947
  H        10.9828500993        3.6170600947       11.6295062350
  H        11.6352104520        3.4711459489       10.1345958550
  C        12.4712287571        2.1759899784       11.7315953278
  C         7.7110988711        6.2875313864       12.8835103044
  C        10.3099702723        4.5916571690        5.9250187831
  H         9.6619870256        6.2661299063        7.0389310656
  C        10.8231520384        2.9323742175        4.7404447880
  H        13.2080930181        2.9953192194       11.7809831046
  H        12.9393413544        1.2890805426       11.2210028528
  C        12.0683598365        1.8580432460       13.1221108674
  C         7.6672157741        7.6969156117       13.0385496255
  C         7.4611799976        5.4092278229       14.0852190380
  C        10.5278675301        5.3540420615        4.6525354640
  C        10.9402080476        4.0192493403        3.9000845127
  S        11.1602993592        1.4157629876        3.9577824404
  H        11.6232482148        2.7471667566       13.5411730813
  H        11.2789288070        1.0575228618       13.1321542599
  C        13.2336071388        1.4225058087       14.0605739508
  N         7.8959908636        8.6667458733       12.0853570054
  C         7.4841580501        8.2037280843       14.2684397063
  C         7.0895875348        6.0031038024       15.3113010156
  H         7.4114051860        4.3663624209       13.9848340026
  C        11.7651412842        6.2375813964        4.8848231921
  C         9.4113691534        6.0634688752        3.8967981497
  C        11.4080140719        3.6450379326        2.6177644219
  C        11.5033948244        2.3019991574        2.4850948812
  H        13.8074759815        2.2601326646       14.3261989777
  H        13.8969296994        0.7880103601       13.4778972309
  C        12.7863284773        0.7548554428       15.2653798618
  S         7.8505636375       10.1414467300       12.8353602268
  N         7.6213727580        9.5675381809       14.3586666033
  C         7.1471313826        7.4831428852       15.4324026738
  H         6.8609964219        5.3270991912       16.1354079200
  H        11.4997662258        7.0611934052        5.5485164037
  H        12.0435537061        6.7597008828        4.0296138157
  C        13.0266678565        5.4406538176        5.3751670801
  H         9.1556679324        6.9855634952        4.4885025089
  H         9.8575841995        6.3517602757        2.9754252043
  C         8.1795792901        5.1887168294        3.5084603996
  H        11.5914743152        4.3866144105        1.9252460800
  C        11.8255645781        1.5529112104        1.1987982817
  H        12.0225302888        0.0551369864       14.9990011928
  H        13.5819627375        0.1551310992       15.7360581862
  C        12.0661539550        1.6136755287       16.3501184153
  C         6.9617855536        8.2115201502       16.6545027831
  H        12.6887129355        4.6988188408        6.1763648690
  H        13.5355157487        4.8079558353        4.6250579264
  C        14.0175669248        6.5152508088        5.8662534925
  H         7.6156672711        4.8923364247        4.4034719804
  H         8.5059712617        4.3261101332        2.9271968000
  C         7.2066777539        5.9566668967        2.5925734497
  C        11.7776949198        0.1173134275        1.0350088211
  C        11.8167208261        2.3253128363       -0.0827870325
  H        10.9955798563        1.6277476634       16.3538415564
  H        12.3369191978        2.6254225082       16.0134971250
  C        12.6764278742        1.2707331480       17.7291655856
  H         6.9383932118        9.3203769580       16.5938822832
  C         6.6162052434        7.8615506121       17.9629776079
  H        13.4852584395        7.2036937930        6.5843981178
  H        14.3081842813        7.0798592358        4.9721338270
  C        15.2124260286        5.8911931565        6.5422584505
  H         7.0761260598        7.0132321107        2.8838901042
  H         7.6594093435        6.1012432753        1.6363011573
  C         5.8404594929        5.2561093022        2.5035030461
  N        11.5860861908       -0.8645267120        2.0179850807
  C        12.0756669517       -0.4827259310       -0.1387626297
  C        12.1698185252        1.7686185577       -1.3010688824
  H        11.7497319853        3.3387694277       -0.0825170873
  H        12.4233352071        0.2371621984       17.9643797772
  H        12.3337026155        2.0470349410       18.4366227430
  H        13.7543898330        1.3756387519       17.6754554440
  S         6.4010930346        6.2588321207       18.5370115215
  C         6.5971536722        8.8848546969       18.9900153837
  H        15.3816607369        6.3675184306        7.4629899520
  H        14.9826438972        4.9226945451        6.9762395735
  C        16.5193218460        5.8083532631        5.7476480425
  H         5.4327133576        5.0180605896        3.5234214351
  H         6.0263657544        4.3191707302        1.9051943891
  C         4.8413456500        6.1303783477        1.6277979575
  S        11.8232711410       -2.3188600957        1.4621618165
  N        12.1152019519       -1.8998350027       -0.0436237827
  C        12.3170483230        0.2273085210       -1.3625989058
  H        12.3566261118        2.3820894185       -2.1051548331
  C         6.2175986061        6.9893138337       20.1310653217
  N         6.1839464656        8.3598248382       20.1512680511
  O         6.8980446318       10.0498506974       18.7672870431
  H        16.3276423579        5.7519216059        4.6879170688
  H        17.1975562043        6.6655714718        6.0007246779
  C        17.3388531293        4.6271283929        6.1154218155
  H         5.3383034560        6.2849945827        0.6963515800
  H         3.9711253085        5.5862177943        1.4505477835
  C         4.3893009931        7.4871154708        2.3439397856
  C        12.6755451679       -0.5280711127       -2.5103992519
  S         5.6782556598        6.1494523554       21.6224121609
  C         6.2861467535        9.0784263891       21.4155806977
  H        16.7239793760        3.7482712020        6.1074418604
  H        18.1575103186        4.6909018898        5.3310641262
  C        17.9566343602        4.8176618377        7.4665497127
  H         4.5063223749        7.4824879336        3.4405017621
  H         3.3043712471        7.4530454712        2.2158856828
  C         4.7770147839        8.8225016916        1.6370399815
  H        12.2883115290       -1.5902586936       -2.3445899257
  C        13.3196176341       -0.2912323892       -3.6783934456
  H         5.6967418759        8.6470426825       22.2835144481
  H         5.8894698775       10.0902730109       21.2667420036
  C         7.7362139280        9.3195088027       21.8640853247
  H        18.0644310279        3.9103934694        8.0490548667
  H        17.4199896256        5.4929038779        8.0806255330
  C        19.4152258298        5.3772933833        7.3812844735
  H         4.9070018220        9.5221222054        2.4237441986
  H         5.6784678802        8.6135895737        1.0953336580
  C         3.7350914477        9.4757761891        0.7670946472
  S        13.9701094282        1.1766550342       -4.1565495993
  C        13.4311080480       -1.4064695978       -4.6802760030
  H         7.7688722180        9.1029082175       22.9254879749
  H         8.0073225745       10.3068984855       21.6253222588
  H         8.4125645874        8.5947103600       21.3593481025
  H        20.1420543043        4.5893513972        6.9992901618
  H        19.4990591890        6.3155637781        6.7316515401
  H        19.7945414756        5.5533727885        8.3621991748
  H         4.2241749169       10.3869153786        0.4142394174
  H         3.4169339168        8.7809059737        0.0193128673
  H         2.8818303815        9.5792250499        1.4801497665
  C        14.3581816123        0.4718593413       -5.6542808546
  N        14.0390190273       -0.8318867361       -5.7688912900
  O        13.0328811266       -2.5713932736       -4.3747226112
  S        15.0197050442        1.4430216893       -7.0074362624
  C        14.3720415827       -1.6579956301       -6.9165512236
  H        14.1446124249       -2.7391886900       -6.6907526545
  H        15.4434774884       -1.5601177670       -7.1608546564
  C        13.6202986902       -1.3315295862       -8.1755142063
  H        12.5503978054       -1.4606017700       -7.9077808078
  H        13.9533640892       -2.0913857796       -8.8680727623
  H        13.9272927867       -0.3819246996       -8.6550904414
  H        -3.5606011544       12.5023805245       16.4827990557
  C        -2.4994145483       12.7359886088       16.3566682727
  H        -2.0102885004       11.7944071675       16.5830804046
  C        -2.1132458377       13.8168587709       17.4661945661
  C        -2.2774881611       13.2541082027       14.8582322295
  C        -2.6122881397       13.4000007707       18.8650330007
  H        -1.0213161543       14.0825355721       17.4874373441
  H        -2.6444377787       14.6937856463       17.1881202758
  H        -2.3459153893       12.4258778107       14.1003478723
  H        -2.9428992578       14.0566268552       14.5634978621
  H        -1.2830155228       13.6448493026       14.7505301546
  C        -1.6082714265       12.8799538068       19.9352701752
  H        -3.2599271774       12.4558663124       18.8643846261
  H        -3.1481596638       14.2025515072       19.3618663576
  C        -2.1964834747       12.9488282610       21.3573724089
  H        -1.2147149593       11.9382448770       19.7669282312
  H        -0.8481020294       13.6702605114       19.9804512023
  C        -1.1776240771       12.3838214422       22.3658946665
  H        -3.0738137498       12.3505961704       21.2722824463
  H        -2.4226487096       13.9284095492       21.6671775386
  C        -0.0643861812       13.3465835069       22.7880287838
  H        -1.7898100108       11.9606511978       23.2230365829
  H        -0.7672399514       11.4933799350       21.9848914127
  C         1.0388697252       12.6447572029       23.6864725908
  H         0.4989680608       13.8235406991       21.9848735984
  H        -0.5397641469       14.1393297740       23.3728245317
  C         1.5066607109       11.3336809484       23.0990563048
  C         0.5325805014       11.9625356464       24.9366633579
  C         2.2393092419       13.6709542892       24.0463224764
  C         1.1800349199       10.2432720777       23.8616106069
  C         1.9056246225       10.9613454121       21.8095261567
  C         0.6964144272       10.6297354527       25.0766508520
  C         0.0205325969       12.5689853408       26.0866370948
  H         2.3586975708       14.1863785463       23.0842781841
  H         1.9511014872       14.2686317937       24.9114095580
  C         3.5593932355       13.0044372467       24.3827148199
  S         1.4943619807        8.7385109571       23.0883803876
  C         2.1461256875        9.6402033061       21.6874257554
  H         2.0363473726       11.7560250132       21.0501271305
  C         0.3162087719       10.0405872157       26.2826414598
  H         0.0247270197       13.6019493054       26.1416088536
  C        -0.3643347209       11.9556696102       27.2356256570
  H         3.8118705571       12.4387399484       23.5105485572
  H         3.4481199058       12.3539756646       25.2671298508
  C         4.6363801644       13.9426796984       24.5920697127
  C         2.5745397887        9.0717206143       20.3431162944
  C        -0.2090316709       10.6534168171       27.3651675275
  H         0.3793671566        8.9885184376       26.2742460086
  C        -0.8508399044       12.4021240997       28.4215791564
  H         5.4915803913       13.4882471035       25.0719569115
  H         4.4047466418       14.6160703149       25.3657400547
  C         5.4175109314       14.6110946180       23.4383545886
  C         2.5213946543        7.6645006065       20.0643276376
  C         3.0575687188        9.9247439233       19.2408610288
  C        -0.7631258662       10.0064959204       28.6397831196
  C        -1.0128464957       11.3619430669       29.2820648444
  S        -1.1003776290       13.9124719514       29.0506063113
  H         6.3771820973       14.9926054186       23.7801967346
  H         4.8867293792       15.4245041341       22.9150504193
  C         5.9807577259       13.6653943474       22.3962611943
  N         2.2803793763        6.7273108325       20.9660566960
  C         2.7563862486        7.2080921771       18.7919174553
  C         3.3295415551        9.3802290819       17.9947681477
  H         3.2854223261       10.9967762540       19.4957210172
  C         0.4219338488        9.2304438005       29.2942270316
  C        -2.1550477451        9.2251062948       28.4942540916
  C        -1.4489238108       11.8601542624       30.5940248791
  C        -1.5853592039       13.2083359351       30.5566048206
  H         7.0579723729       13.9405911797       22.1360343415
  H         6.1417991005       12.6360878410       22.7590726566
  C         5.0333941036       13.6828261402       21.1857744144
  S         2.2032677145        5.3033892189       20.1895358020
  N         2.5867826909        5.8242617068       18.6625686950
  C         3.2749323993        7.9461736948       17.7231119740
  H         3.7437690180       10.0041931731       17.2232737812
  H         0.7625488855        8.3537387208       28.7590547389
  H        -0.0004673328        8.7387676958       30.1803773854
  C         1.6531563117       10.0250628968       29.6894225691
  H        -1.8625142675        8.3100900943       27.9331392827
  H        -2.4807949430        8.7259896098       29.4527514596
  C        -3.1700311599       10.0882782750       27.7988459314
  H        -1.6194558804       11.1775716190       31.3696532658
  C        -1.8877724992       14.0374147872       31.8090583795
  H         5.1850678768       14.6552976485       20.8091321591
  H         3.9874288260       13.5889783135       21.4609325128
  C         5.5815235920       12.7098320649       20.1670947956
  C         3.4560882322        7.3686431596       16.4504180552
  H         1.8428284235       10.8590228168       29.0547460751
  H         1.4410357781       10.4404757604       30.5964773160
  C         2.8261570784        9.0787927038       30.1467898934
  H        -2.8376171680       10.2346407413       26.7610706477
  H        -3.2990515386       11.1201460674       28.1803084139
  C        -4.6010902540        9.5923881406       27.8036188320
  C        -1.8742476044       15.4231782335       31.8578823435
  C        -2.1263659323       13.3482211103       33.1348774165
  H         6.6016243154       12.3175351043       20.4574050041
  H         5.0789104189       11.7800985628       20.1982952163
  C         5.7450479148       13.1987096487       18.7260169177
  H         3.4934990715        6.3123205993       16.4612469037
  C         3.7292004167        7.8151907048       15.1904764268
  H         3.1287350304        8.5266943208       29.2758475313
  H         2.4352606177        8.3530124936       30.8952403843
  C         4.0083099636        9.7972224179       30.8185687250
  H        -4.5095012450        8.6019289208       27.3388328486
  H        -4.9617827829        9.2645143056       28.8157481542
  C        -5.6245978376       10.4516418745       27.0701534248
  N        -1.4872232002       16.2686925917       30.8011687236
  C        -2.0761367112       16.1134724573       33.0550340210
  C        -2.2721726347       13.9787413228       34.3214563063
  H        -2.1541479278       12.2950159539       33.1001030787
  H         6.8108988894       13.1083981107       18.3754289528
  H         5.1579945079       12.5862951206       18.0207385799
  H         5.1916596765       14.1099736001       18.6734627676
  S         4.0224702259        9.4337237261       14.6644178266
  C         3.8003829383        6.6857373876       14.1496754801
  H         4.1656944338       10.8160804025       30.4166343954
  H         3.8526346240       10.0149781592       31.8912222098
  C         5.3455931402        9.0415432651       30.6349071731
  H        -5.1020863036       11.0776319046       26.4368411299
  H        -6.1367574213       11.0290186041       27.8344317141
  C        -6.4702097099        9.5588961597       26.1501052698
  S        -1.2963478325       17.8007060655       31.3984026703
  N        -1.8132410182       17.4721262218       32.8642249108
  C        -2.2988233980       15.4809137294       34.3252217733
  H        -2.3655930685       13.4142475687       35.2315513709
  C         4.2063531298        8.6394547664       13.1106784560
  N         4.1388636661        7.2910658307       12.9795544116
  O         3.5441712284        5.5178937636       14.3805429069
  H         6.0736220620        9.7443780209       31.0134394488
  H         5.4653597317        8.7801792508       29.6128278556
  C         5.4186209497        7.6880759286       31.4822824471
  H        -5.8819835313        8.8805092559       25.5256883499
  H        -7.2214761298        8.9266985608       26.6817591303
  C        -7.2664002527       10.4308004511       25.1850782370
  C        -2.6352371703       16.2998386981       35.4163291382
  S         4.3179728612        9.5949334833       11.6521992484
  C         4.1692023401        6.5254657293       11.7589249166
  H         5.5295823073        7.8882392108       32.5532272592
  H         4.4973095984        7.0392242133       31.3415782803
  C         6.6264303628        6.8038432500       31.2103102980
  H        -6.7506859809       10.7290583088       24.2888116801
  H        -7.7575538891       11.2564370045       25.7992543575
  C        -8.4089405927        9.5825533308       24.6470964328
  H        -2.6275709487       17.3603013861       35.2588391039
  C        -2.9494958420       15.9600345603       36.7100794161
  H         4.9508169400        6.9932728644       11.0699734669
  H         4.4975077496        5.5015642233       11.9378344382
  C         2.8611207430        6.4676358640       11.1207260142
  H         7.5200167471        7.3160809521       31.5230898621
  H         6.6496564849        6.6795598532       30.1163328172
  C         6.4840807719        5.4042177273       31.8220188031
  H        -8.6248448333        9.8356354145       23.6737977014
  H        -8.0693778967        8.5207033257       24.5840442720
  C        -9.5858153886        9.7142469624       25.5639214200
  S        -3.4552733974       14.3852399742       37.3447384865
  C        -3.1469906106       17.1260915344       37.6117432329
  H         1.9921310498        6.2811023685       11.8142369054
  H         2.7593387833        7.4264839642       10.5893506751
  H         2.8414208128        5.6192053183       10.4006569982
  H         5.5343689557        4.8674899785       31.5485114341
  H         6.6663092256        5.4500077743       32.9155269146
  H         7.2595775863        4.7717171154       31.4960105182
  H       -10.2220346811       10.5074073853       25.3123103046
  H        -9.3423446141        9.9583267028       26.6337630261
  H       -10.1095394904        8.6943488219       25.5870987221
  C        -3.7086310629       15.3538087395       38.8785943743
  N        -3.5622111729       16.6841737375       38.8049975607
  O        -2.7590595910       18.2964539195       37.4016110991
  S        -4.1131666429       14.5958669123       40.4022356022
  C        -3.5887983231       17.5240646665       40.0080250826
  H        -3.8634768529       18.5449416899       39.7562655503
  H        -4.2841902803       17.2540719106       40.7730000472
  C        -2.2378555704       17.3768375254       40.7517334608
  H        -1.5987482974       16.7015633716       40.1995270099
  H        -1.6469809377       18.2237973396       40.8644443463
  H        -2.4260451753       16.9142432572       41.7393850638
