352
i=
  H         5.0216552393        1.0407413146       12.4241694602
  C         4.4170998625        1.9716366409       12.5543116831
  H         5.0226957068        2.8050321231       12.5562974487
  C         3.3241619618        1.9043777935       11.5012927198
  C         3.9659290180        1.8945975261       13.9536596371
  C         3.8761546015        2.4064456762       10.1230083523
  H         2.4465830160        2.3987849031       11.7991842739
  H         3.0360610068        0.9345951887       11.2777330657
  H         3.8803221175        0.8859975058       14.4060474656
  H         3.0694573627        2.3600641267       14.0366606524
  H         4.7169360712        2.3768433020       14.5830579502
  C         4.4620402024        1.2435227279        9.3114110574
  H         3.0188768429        2.7947363300        9.5847813071
  H         4.5032691577        3.2430676729       10.2790020361
  C         5.1764658726        1.6606952405        8.0262427496
  H         3.7327592687        0.5776972322        8.9780313583
  H         5.1327131984        0.6883716248        9.9813826433
  C         6.4588313913        2.5153498396        8.2490938971
  H         4.4820219879        2.2867678889        7.4738933438
  H         5.3863773598        0.7377876684        7.4114226114
  C         7.6829286996        1.7469941133        8.8061362840
  H         6.8142090176        2.8947671849        7.3746067565
  H         6.2634113573        3.4483491114        8.7082319746
  C         8.9545504106        2.6188314459        9.0867000651
  H         7.9629671512        0.9757529224        8.1554528475
  H         7.4392672033        1.4165072611        9.8069949490
  C         8.5592574540        3.9969462813        9.7534295817
  C         9.4385714317        3.3225751403        7.8970578117
  C        10.0358578846        1.8941958366        9.8586431961
  C         8.8207280750        5.0943110343        8.9325504161
  C         8.0680718482        4.3745856148       10.9907171838
  C         9.3961862096        4.6733476886        7.7833375304
  C         9.9761696298        2.6787642861        6.7256762362
  H         9.5109995576        1.2577646735       10.6034569457
  H        10.5709320888        1.1797116002        9.1611957423
  C        11.1448691382        2.7709500956       10.4645989571
  S         8.2554612129        6.5858213402        9.5872058941
  C         7.9610293671        5.7487825200       11.0305781775
  H         7.9827194933        3.5529845285       11.6587920734
  C         9.7920009242        5.3053798080        6.6366563077
  H         9.9767968746        1.5986441889        6.7992282044
  C        10.2990500059        3.4032964540        5.5887551532
  H        10.7659561422        3.5207968312       11.1276970700
  H        11.5181559823        3.3453835360        9.6615635041
  C        12.2043416111        1.9670340774       11.0770050049
  C         7.6025019760        6.4150612223       12.3289172891
  C        10.2622353572        4.7876902297        5.4893283378
  H         9.6526864678        6.3604057765        6.6974196742
  C        10.7010323839        3.0512189572        4.2908478843
  H        13.1752359906        2.4835196246       10.9285034934
  H        12.3327963753        1.0258332880       10.4806769870
  C        12.0494026341        1.7649684696       12.6302253550
  C         7.7940557748        7.7913524063       12.6042339280
  C         7.1171255581        5.5199135315       13.5010200862
  C        10.5163628011        5.4981022127        4.1189566870
  C        10.8609465436        4.1223209294        3.4136741354
  S        10.9549008731        1.5691404814        3.5387742966
  H        11.4335528772        2.5111470882       13.0653510410
  H        11.6300732561        0.7784580075       12.8082359545
  C        13.4243079096        1.7072704766       13.3633391208
  N         8.0702636501        8.8088876837       11.6445177184
  C         7.5097999756        8.2814724023       13.9133534032
  C         6.9199785846        6.0091129085       14.7895920878
  H         6.8328911213        4.5201393306       13.2723582552
  C        11.7774106205        6.5002183055        4.0250719163
  C         9.2199116135        6.2947299504        3.6096384539
  C        11.0989057261        3.6803262104        2.1128114740
  C        11.2692397642        2.3294640767        2.0341624131
  H        13.8726896922        2.7259770022       13.4255182412
  H        14.0887722570        1.1230829329       12.7324177917
  C        13.4119315160        1.0545741402       14.7393652511
  S         8.0232807321       10.1991948622       12.4306017233
  N         7.6147896630        9.6762057571       13.9186638438
  C         7.1583189582        7.4766989895       15.0596584975
  H         6.3458940876        5.4523673941       15.5485946806
  H        11.7920862134        7.2819642224        4.7952399539
  H        11.8620460898        7.0451242039        3.0913895558
  C        13.0953806318        5.7926516811        4.3446114099
  H         8.9117882093        7.0899186342        4.3739659041
  H         9.5054987440        6.8837347517        2.7336475478
  C         8.1002646701        5.3902044201        3.2886984424
  H        11.3146604863        4.3395413413        1.2223670515
  C        11.5180357702        1.5553303888        0.7973486444
  H        13.1579542115        0.0194873944       14.5664609341
  H        14.4203553780        1.0651791326       15.2139156374
  C        12.5799973155        1.7390404081       15.8119936576
  C         6.9085760026        8.1704083101       16.2984008315
  H        13.0031683631        5.1135922887        5.1937042001
  H        13.4075598724        5.2592214911        3.4200051948
  C        14.1983255149        6.7680372032        4.6073761023
  H         7.7339603549        4.9380211130        4.2637251634
  H         8.3432766476        4.5033006804        2.6790996012
  C         6.9877679652        6.1558240657        2.5184874409
  C        11.6400715695        0.1511629314        0.6765678543
  C        11.6905936866        2.2856946660       -0.4865851530
  H        11.5186653808        1.4705938061       15.5986625406
  H        12.7669423359        2.7950328687       15.7923805609
  C        12.8856458344        1.1728092192       17.2522767517
  H         6.9419813706        9.2458796248       16.1346129641
  C         6.5124027218        7.7594258985       17.5287654943
  H        13.9255426684        7.3641420854        5.4942477016
  H        14.3705045869        7.3580066784        3.6380778289
  C        15.4791137162        6.0179600722        4.8454716768
  H         7.0418939092        7.1492653633        2.9469498217
  H         7.3289062818        6.4223138197        1.5178668648
  C         5.5608076823        5.5300246867        2.4799674671
  N        11.4057083606       -0.7738083684        1.6909667721
  C        11.8439597781       -0.5282421570       -0.5787440000
  C        12.0718341893        1.6492708395       -1.6806478267
  H        11.9690548173        3.3627171632       -0.3580563033
  H        13.4822782299        1.8466787065       17.8937237779
  H        13.4843465801        0.2837612215       17.1631083803
  H        11.9450633045        0.9224268245       17.7194436819
  S         6.3018954533        6.1647418755       18.0414824017
  C         6.3789792640        8.8307387788       18.5966804354
  H        15.5075222650        5.2162423159        4.1486616879
  H        16.2268197197        6.6761147240        4.4759337608
  C        15.6811985550        5.6667506432        6.3767890732
  H         4.9513880189        5.1598365433        3.3597638354
  H         5.6952326091        4.6133639748        1.8722274555
  C         4.5184049765        6.3591688293        1.7488336381
  S        11.6227628863       -2.2791102104        1.0517091590
  N        11.9196391859       -1.9201415648       -0.4660069462
  C        12.1145135059        0.2012896728       -1.7527038557
  H        12.2397185808        2.2894146906       -2.5647427019
  C         5.9989550386        6.9212213758       19.6214233689
  N         6.0313646342        8.2727892033       19.7699923522
  O         6.6796478580       10.0205263591       18.4546037902
  H        15.7181090665        6.6263422376        6.8798440850
  H        14.8529664303        5.0955484273        6.7286887751
  C        17.0430125411        4.9283757989        6.6406491166
  H         4.7213387401        6.4827427141        0.6710028985
  H         3.6410077482        5.6892243421        1.8701600473
  C         4.2218717102        7.7301366904        2.4464261203
  C        12.3834471105       -0.5343703084       -2.8622161689
  S         5.6442724833        6.0179732753       21.1455697896
  C         5.9812429019        8.9978196223       20.9685477575
  H        16.7510199640        4.4337844961        7.5988062202
  H        17.1521010989        4.0428858878        5.9468879749
  C        18.2543860447        5.7207815866        6.7590185370
  H         4.8030966343        7.8548891088        3.4249937048
  H         3.1657517373        7.7542593203        2.7508435839
  C         4.5720742879        8.8743950517        1.4705972932
  H        12.2188856395       -1.5792070042       -2.7435445694
  C        12.9246299360       -0.2445947498       -4.0895774243
  H         5.4078897469        8.5375251158       21.8467944987
  H         5.4056850926        9.9764848056       20.7500307863
  C         7.4107607479        9.3016327323       21.4833893196
  H        18.8396474831        5.3480310935        7.6259250493
  H        18.0716351276        6.7707893841        7.0507308522
  C        19.2519172127        5.4993326456        5.6769435520
  H         5.6132884334        8.9717644663        1.2983869528
  H         4.2456853490        8.5291372189        0.4781427865
  C         3.8998170708       10.1562018143        1.9570048621
  S        13.4534568108        1.3797876198       -4.5676389079
  C        12.9896948086       -1.1865751028       -5.1829195365
  H         8.2411587542        9.5031241275       20.7205499225
  H         7.6388946348        8.4921386164       22.1810721307
  H         7.3355376221       10.2546321708       21.9561268597
  H        19.8566264934        4.5671343212        5.8533972321
  H        18.7706315830        5.4107852225        4.7060615670
  H        19.9948863240        6.2902887587        5.5575629251
  H         2.8481253464       10.0509814346        2.0863904676
  H         4.4053643391       10.5642920877        2.8244915609
  H         4.1632156893       10.9209989435        1.1628998832
  C        13.7552457974        0.6787349387       -6.1579744399
  N        13.5715941363       -0.6373846332       -6.2630728619
  O        12.6292189225       -2.3391788499       -5.0128472958
  S        14.2858011446        1.6038427901       -7.5443454760
  C        13.6404631852       -1.2967072809       -7.5464233178
  H        13.9355703251       -2.2938332801       -7.3298008338
  H        14.4914942254       -0.9702967300       -8.1675466305
  C        12.2920740282       -1.3975793591       -8.3056163791
  H        11.4808478019       -1.3274012125       -7.6103454965
  H        12.1067706658       -2.4120619844       -8.7623274074
  H        12.1656497567       -0.6992482435       -9.0762774743
  H        -2.6184979186       15.0777353497       16.1176023654
  C        -2.9649329155       14.0946511590       16.3341231061
  H        -3.8894890205       14.3788978437       16.7819935910
  C        -2.0054660986       13.3540463923       17.4066632056
  C        -3.2849427513       13.1809397536       15.0720250458
  C        -2.2165996777       13.7682609862       18.8572974216
  H        -2.3369962708       12.3665531633       17.2244046458
  H        -1.0041741122       13.5114081287       16.9711797305
  H        -4.3608155258       13.1121024128       14.9596028770
  H        -3.0329214625       13.7370798756       14.1665183395
  H        -2.8025068552       12.1267921732       15.0331582908
  C        -2.0288286258       12.7264498204       19.8931929389
  H        -3.2185672588       14.2847321565       18.8993428808
  H        -1.4751473522       14.4449653393       19.1024857586
  C        -2.3975781629       13.2116757665       21.2898331237
  H        -2.6414734917       11.8939466174       19.7581043210
  H        -1.0004795957       12.4183050924       19.9804523615
  C        -1.4220567884       12.6933202498       22.3165650621
  H        -3.3721808920       12.7403990977       21.4221747746
  H        -2.4010720323       14.2454213245       21.2647029988
  C        -0.1104952762       13.4980354116       22.4455362812
  H        -1.9998178590       12.6802066307       23.2091789111
  H        -1.2144480886       11.6511712949       22.0882670448
  C         1.0164786645       12.8517796895       23.2074180706
  H         0.2112825754       13.6986390622       21.4901006246
  H        -0.3349790827       14.4748391823       22.8731016162
  C         1.2623089037       11.4699318272       22.6280947327
  C         0.5912665986       12.1570239612       24.4837045117
  C         2.2415214567       13.6432671439       23.4920447999
  C         1.0958008499       10.3825533784       23.4450752325
  C         1.7450688156       10.9927583938       21.4034819271
  C         0.6443271841       10.8066381909       24.6737974126
  C        -0.0182170282       12.8500033358       25.5279905464
  H         2.4538185146       14.2102362092       22.6392867260
  H         2.0607156509       14.3652385838       24.3360748472
  C         3.4644511482       12.7739752521       24.0511690048
  S         1.5358765298        8.8905454148       22.8149583796
  C         1.9629116893        9.6622599816       21.3509139026
  H         1.9451553378       11.7260682018       20.5979193365
  C         0.0851289573       10.2897935758       25.8422417120
  H        -0.1886661593       13.9084649411       25.4334395031
  C        -0.4732543629       12.3522742667       26.6993841096
  H         3.6904044861       11.8080676006       23.6125640624
  H         3.1077857143       12.5513243764       25.0233047819
  C         4.6586217385       13.6708958471       24.2602208464
  C         2.4891252994        8.8763812283       20.2429106204
  C        -0.4366281658       11.0381104328       26.8877349783
  H         0.1431103833        9.2350815008       25.8191890074
  C        -0.8494864618       12.8475409295       27.9032486462
  H         5.3316022370       13.0752910839       24.9237381446
  H         4.4750776483       14.5775396381       24.7648738377
  C         5.3822830213       13.9080658978       23.0009397181
  C         2.3821163971        7.4801342530       20.0747951459
  C         2.8338985753        9.6508218781       18.9837221001
  C        -0.8836540439       10.4373179886       28.2263076774
  C        -1.0726600905       11.8517880086       28.8295713844
  S        -0.9852390145       14.4263732723       28.6928812024
  H         6.4427977264       14.0650549680       23.3721661315
  H         4.9641380020       14.7382583643       22.4321207513
  C         5.5043683546       12.7325951224       22.0126450222
  N         2.1102462395        6.5786560038       21.0455190531
  C         2.5891096159        6.8673447672       18.7989842057
  C         3.0943404914        9.0858101726       17.7347433572
  H         3.1137928395       10.6556180109       19.0564765832
  C         0.1845585247        9.5701829478       28.9077255852
  C        -2.1290988526        9.6161403450       28.0911992313
  C        -1.4500233082       12.2714729696       30.1426377734
  C        -1.4992214012       13.6697660966       30.1570571133
  H         6.3383895428       12.1212364090       22.4564073317
  H         4.6398700068       12.1435598450       21.8753863615
  C         5.7842634722       13.1259716033       20.5718635021
  S         1.7751698600        5.1334470638       20.3662038317
  N         2.3187732831        5.4685706723       18.8227650538
  C         2.9461325786        7.5644281979       17.5992080263
  H         3.5659402517        9.7121933267       16.9630729515
  H         0.4408303495        8.6050676403       28.4660619734
  H         0.0072436378        9.4516874754       30.0208863069
  C         1.5769652452       10.2240783832       29.0148542711
  H        -1.9290769605        8.5557852709       28.0391259758
  H        -2.5909395923        9.7017464926       29.0341128074
  C        -3.1511722149       10.2863335156       27.1381529627
  H        -1.5554792946       11.5714874186       30.9622139138
  C        -1.7090681762       14.5746982098       31.3514484456
  H         5.2178543661       14.0201727730       20.3922444897
  H         5.4317685505       12.2034399932       19.9694804963
  C         7.2620175359       13.4084276779       20.3881002421
  C         3.1893422745        6.8360270412       16.3899042545
  H         1.8734984036       10.7487138602       28.0969854991
  H         1.5028039288       11.0363466421       29.7476223209
  C         2.7083385751        9.2684447286       29.4915199728
  H        -2.8204237507       10.1732652382       26.0795258077
  H        -3.3046408841       11.3334686782       27.3645852504
  C        -4.5149239805        9.6456351245       27.2507262131
  C        -1.6670075351       15.9714789419       31.4376494923
  C        -1.9931588554       13.8332073954       32.6730060390
  H         7.6452528733       14.3004899256       20.8604807628
  H         7.7855528675       12.5548479204       20.7576131410
  C         7.6951327588       13.4398012135       18.9236981310
  H         3.2124062007        5.7748588504       16.5070731656
  C         3.6262184284        7.2099305489       15.1465331045
  H         2.8938751845        8.6928524908       28.6420645507
  H         2.3953181273        8.6365627072       30.2965098667
  C         3.9846727792        9.8663020287       30.0172595662
  H        -4.7638513683        9.0591084080       26.4019341207
  H        -4.4495468877        8.9862456258       28.1045374207
  C        -5.6369323999       10.6875979106       27.4120672949
  N        -1.3884139024       16.8135256537       30.3980273950
  C        -1.8648551606       16.6832791386       32.6168507422
  C        -2.2231767215       14.5940637387       33.7999914639
  H        -1.9815780994       12.7450164743       32.7408006518
  H         8.3346228403       14.2646438421       18.7293783726
  H         8.1584374375       12.5164000883       18.5460933863
  H         6.8047181366       13.5577972721       18.2760505940
  S         4.1902671609        8.7407517135       14.6369528516
  C         3.6141260254        6.2151633286       14.1006322510
  H         4.2836406790       10.7495388818       29.4671345980
  H         3.8012401174       10.2412731471       31.0529627819
  C         5.2361971687        8.9530141441       29.9542459502
  H        -5.3716902699       11.5430038825       26.7459887635
  H        -5.7393287163       11.0334324694       28.4283028768
  C        -7.0383400659       10.1968398620       27.1214395394
  S        -1.4912955236       18.3694253431       30.8696869490
  N        -1.8667398891       18.0243533311       32.4249611769
  C        -2.2780825424       16.0709651736       33.8035140359
  H        -2.4422485796       14.1158141777       34.7235466961
  C         4.1454987913        8.0100858184       12.9983146383
  N         3.8292727296        6.7119928036       12.8965676172
  O         3.4299068060        5.0368941373       14.3461139617
  H         6.1271385609        9.5563652801       29.8998705200
  H         5.1652391518        8.2960615127       29.0794755250
  C         5.2762995570        8.0004274381       31.1776815954
  H        -6.9713995356        9.0978606495       27.2278186463
  H        -7.6728263034       10.5186320507       27.8732152313
  C        -7.5204884086       10.6349515278       25.7578098186
  C        -2.5467863550       16.9160523796       34.9826420019
  S         4.5077052710        8.8375281433       11.5166825483
  C         3.5468460427        6.0069154730       11.6244879552
  H         5.4563129773        8.5190035406       32.1004070496
  H         4.3451666661        7.3783523278       31.2581657113
  C         6.4365846872        6.9489274984       31.0971136418
  H        -6.7484777320       10.4291803701       24.9062511226
  H        -7.7137622284       11.6605611448       25.8218639724
  C        -8.7535261711        9.9191308907       25.3598853741
  H        -2.2905151042       17.9932238017       34.8791821016
  C        -3.0128731810       16.5916160993       36.2268165292
  H         4.3136210534        6.1555605385       10.9259002374
  H         3.4741150651        4.9364026037       11.7569158772
  C         2.1398426172        6.3665356971       11.2158262129
  H         6.5205541768        6.5596832772       32.1545037540
  H         7.4283773271        7.2382014102       30.7169048485
  C         6.1590164986        5.7873246975       30.1911389862
  H        -9.1689442976       10.2018935733       24.4050066934
  H        -8.5648012986        8.8246560267       25.2985897281
  C        -9.7591891174       10.1474492847       26.4588871187
  S        -3.4915218049       15.0372265395       36.7421252011
  C        -3.0711705340       17.6123836093       37.2864702358
  H         2.2100458660        7.3620427694       10.7672103584
  H         1.7564503542        5.6474951928       10.5343858261
  H         1.3148691754        6.3634848014       11.9657128385
  H         7.0911564877        5.2108582114       30.1246603475
  H         5.9199240025        6.1938837725       29.2481638869
  H         5.2928421952        5.3102663353       30.5361693921
  H        -9.6416757446        9.6008816905       27.3234989415
  H       -10.7570476578       10.0666606987       26.1019571070
  H        -9.7155945922       11.1859242908       26.7208955682
  C        -3.7929432247       15.7758168488       38.3251722719
  N        -3.6481550309       17.1150299077       38.3700028399
  O        -2.7188560531       18.8237966631       37.1441954978
  S        -4.2732640999       14.9463882752       39.7945835936
  C        -3.5885916337       17.9572117785       39.5711778073
  H        -3.9278644113       18.9776756208       39.2451626011
  H        -4.2120360074       17.5837827295       40.3756458717
  C        -2.1940035368       18.1132456468       40.0797732572
  H        -1.3117984811       18.2360693070       39.3954457580
  H        -2.0577843353       19.0241913593       40.6302077096
  H        -1.8659941093       17.2423343056       40.7262841067
