352
i=
  H         3.4217575797        4.2569467518       12.8613708815
  C         3.4499833595        3.1194262382       12.8422138297
  H         2.6227924033        2.7668871270       13.5440672092
  C         3.0930579292        2.7071184874       11.3581131957
  C         4.9015820112        2.7575265646       13.2808718334
  C         4.1802086122        2.9540995470       10.2907280282
  H         2.2708140446        3.3527487715       11.0597895943
  H         2.7389602741        1.7305773955       11.3158755999
  H         5.0240888071        3.0696362916       14.3112977808
  H         5.6328904376        3.1695594495       12.5632702892
  H         5.0928997293        1.6690343141       13.2351916398
  C         4.8768319994        1.6753781081        9.7178241423
  H         3.6229023180        3.5134311217        9.5163396597
  H         4.9176724460        3.5697096492       10.7415378145
  C         5.6195312008        1.8803466141        8.4336366927
  H         4.1538744510        0.8150963691        9.6151398630
  H         5.7029109684        1.3347584403       10.3934290965
  C         6.8439218895        2.8414605158        8.5185944140
  H         4.9436504650        2.3799043142        7.7315305575
  H         6.0349325972        1.0267732672        7.9078457176
  C         8.1438016213        2.0120580535        8.8619832916
  H         6.8803173616        3.2163129365        7.5257083608
  H         6.6635188608        3.7141489816        9.2766423170
  C         9.4169316855        2.8228818246        9.0895530569
  H         8.2898566135        1.3476002546        7.9834180592
  H         8.0235268730        1.3140869511        9.6910585941
  C         8.9978589719        4.2826130762        9.6727367908
  C         9.8720680669        3.5549085758        7.8253013094
  C        10.5048786322        2.0733000736        9.8767364132
  C         9.2385296671        5.3599391295        8.8577397693
  C         8.4699326849        4.6727231746       10.8583383946
  C         9.7572133188        4.9013678121        7.6294555937
  C        10.4198018586        2.9234582486        6.6894575683
  H        10.0732996181        1.5665138674       10.7792195308
  H        10.7744620229        1.3645126033        9.1701638359
  C        11.7875536403        2.9504283033       10.1936885465
  S         8.6605569677        6.8586199212        9.5559748252
  C         8.3755685459        6.0109068799       11.0260384610
  H         8.3098912016        3.9362864600       11.5739583325
  C        10.2525280853        5.5653635996        6.5315415772
  H        10.6482227525        1.7977823761        6.7671788793
  C        10.7850115937        3.5460484595        5.5350393411
  H        11.2691774806        3.8532275471       10.5355227534
  H        12.4515579852        3.1492505235        9.3020805728
  C        12.7420087978        2.3717805146       11.2302833083
  C         7.9943517241        6.7385627446       12.2728082366
  C        10.7289352811        4.9177141781        5.3965229745
  H        10.1678396054        6.6392821984        6.4477944073
  C        11.2247631167        3.0978330249        4.3247234935
  H        13.6349840661        2.9544691861       11.2516273665
  H        13.0817952719        1.3572788629       10.9859151426
  C        12.0534503950        2.3796204940       12.5674600640
  C         8.1123472493        8.1240863518       12.5133451097
  C         7.4583774795        5.9572984124       13.4733038170
  C        11.1182407062        5.5402198248        4.0512908190
  C        11.3998262811        4.1261254790        3.3921329374
  S        11.5112841655        1.5142799980        3.7416115809
  H        11.4869983944        3.3462132485       12.6231130467
  H        11.2551656204        1.6561384686       12.6645382503
  C        13.0707204487        2.3040777251       13.7010115937
  N         8.6148642109        9.0928261469       11.6608009941
  C         7.7972032322        8.6056460057       13.7904172265
  C         7.2155448023        6.5027127176       14.6726408243
  H         7.2620095305        4.8434742692       13.4226179320
  C        12.3710434924        6.3863431386        4.1162947521
  C         9.9403171729        6.3406830297        3.4694142969
  C        11.7882771387        3.5747435035        2.1627779102
  C        11.8322081692        2.2138202055        2.1898898713
  H        14.0347600509        2.8471092366       13.5047044917
  H        13.3786621231        1.2603769961       13.6860137675
  C        12.6222595160        2.5552503046       15.1143153772
  S         8.6617569522       10.4714071276       12.4776697299
  N         8.1365845144        9.9935266486       13.9783112875
  C         7.4499946077        7.8720572790       14.9671608508
  H         6.7312162861        5.8394389965       15.3290863171
  H        12.1954033184        7.3787512398        4.4814123147
  H        12.6095079195        6.6159849543        3.0731981703
  C        13.5161022745        5.6782933213        4.8322825281
  H         9.6276582668        6.9789774318        4.2477885849
  H        10.3150726073        6.8424410822        2.5589887479
  C         8.7635507832        5.4247008843        3.0864228759
  H        11.9763941821        4.3034150215        1.3976268087
  C        11.9897057542        1.2982115770        1.0480104013
  H        12.0201909435        3.4978330315       15.1908758814
  H        11.9357951804        1.7222797001       15.3299753790
  C        13.7577678304        2.4411915924       16.1064055467
  C         7.1168172456        8.5625286187       16.1476003621
  H        13.1140758640        5.1574602119        5.7427856645
  H        13.7976316097        4.8109254839        4.2296677619
  C        14.7343088664        6.4853648908        5.3420234693
  H         8.2423698955        5.0147831722        3.9474821871
  H         8.9672651086        4.6737707939        2.2922943238
  C         7.7132557543        6.3650273197        2.6046409587
  C        11.9981741372       -0.1486598910        1.1723428530
  C        12.2493204276        1.9155505596       -0.2834255614
  H        14.5153163531        3.1566105935       15.8967639900
  H        14.2672513948        1.4786621416       15.9841768395
  C        13.3842082893        2.6530464762       17.5504090019
  H         7.2247839185        9.6202066341       16.0708300854
  C         6.7610898455        8.1690864740       17.3975793444
  H        14.3839807866        7.2342997133        6.0260213845
  H        15.2199431286        6.9780795641        4.5030817270
  C        15.7882960512        5.6002146873        6.0250651563
  H         7.3441991642        6.9919355823        3.4326995792
  H         8.1150607636        7.0652717298        1.9353680546
  C         6.4583968033        5.6575713070        2.1626959786
  N        11.6605749743       -0.9732084382        2.2642472335
  C        12.2594301494       -0.9311673035        0.0597236083
  C        12.3798094260        1.1054810500       -1.3537428042
  H        12.2344457284        2.9776178527       -0.4201234931
  H        13.7290817943        1.7736293959       18.0599677002
  H        12.3313132846        2.7268503591       17.7712451549
  H        13.8629470801        3.5485062021       18.0093895423
  S         6.4950466377        6.5642569518       18.0353077153
  C         6.6835183827        9.2670878876       18.4190421981
  H        15.4699616307        5.1736678382        6.9984902405
  H        15.9291742248        4.7154669205        5.3861891129
  C        17.0434056175        6.3876756459        6.3178673122
  H         5.9237579526        5.1910603499        2.9851834152
  H         6.6524914807        4.7991429969        1.5503571641
  C         5.6446759101        6.5928703945        1.2123837611
  S        11.7991999691       -2.5336666443        1.8629148593
  N        12.2852865797       -2.2924168938        0.3145450058
  C        12.4795840224       -0.4160029608       -1.2442783693
  H        12.4441035447        1.5666954711       -2.2761920713
  C         6.2031981671        7.3738300323       19.6137111195
  N         6.3509294303        8.7346042560       19.6113429106
  O         6.9013086111       10.4706742947       18.1735714790
  H        17.3781227143        7.0025961889        5.4942116654
  H        16.9488541347        7.0489871286        7.1694001481
  C        18.1289480734        5.3635427072        6.7701597590
  H         6.3014496169        7.2182850617        0.5999683661
  H         5.1418041796        6.0136377668        0.4585091573
  C         4.8385767373        7.6432091123        1.9447769737
  C        12.7755050070       -1.2321769633       -2.3763038696
  S         5.7897384208        6.5927187730       21.1518043812
  C         6.3494751673        9.5083659568       20.8803149786
  H        17.8218997975        4.6903758035        7.4887110129
  H        18.3475684620        4.6590068612        5.8957222355
  C        19.4476929457        6.0763104480        7.2479342464
  H         5.3618998984        8.3426732262        2.5449910373
  H         4.1247418673        7.1415869623        2.6557120854
  C         3.7837042616        8.3204752626        1.1213487099
  H        12.4692570633       -2.2583378401       -2.2283800987
  C        13.2074054208       -0.9404236812       -3.6586795502
  H         5.6853640232        9.0522353576       21.6661523776
  H         5.9417541589       10.4699694877       20.6496015746
  C         7.8170591841        9.5278165738       21.4070859850
  H        19.7344263466        5.4299150890        8.1104192828
  H        19.2211928885        7.0342550912        7.7129526404
  C        20.5426973653        6.0551705527        6.1820869604
  H         3.6061331041        7.7556694817        0.1657739953
  H         2.8262044641        8.3152428510        1.6008798587
  C         4.2349419312        9.8189640713        0.8950602677
  S        13.7076741437        0.5655474849       -4.2894762792
  C        13.1872693571       -2.1237120179       -4.5650882635
  H         8.4196678635       10.2067087360       20.7702428858
  H         8.1611668962        8.4728741540       21.5183892197
  H         7.8647389345        9.8500634912       22.4274636234
  H        20.1394609259        6.4867851566        5.3052298213
  H        21.3222539156        6.6969616836        6.5948318158
  H        20.9341383806        5.0627202714        6.1088008611
  H         4.3123073466       10.4791457026        1.7535382153
  H         5.2438820068        9.7133822605        0.4440316886
  H         3.6290638321       10.3047110914        0.1172507105
  C        14.1265882750       -0.4076453531       -5.7411647114
  N        13.8316789740       -1.7251707117       -5.6796391577
  O        12.6994212366       -3.2275502309       -4.3866643785
  S        15.0180989910        0.2579322333       -7.1310916399
  C        14.0582415535       -2.6502799662       -6.7713241249
  H        14.0860359755       -3.6121408816       -6.3059634773
  H        15.0193604976       -2.4473791118       -7.2249910612
  C        12.9560079144       -2.8068358525       -7.7780441009
  H        13.1558227026       -3.5950633412       -8.5017521222
  H        12.7221663843       -1.8907516216       -8.3004821446
  H        12.0639860115       -3.1725616239       -7.3242427918
  H        -1.3727823645       14.4545124074       16.6673865776
  C        -2.4440380852       14.6271424114       16.6535220434
  H        -2.7565040791       15.6521689756       16.4433371284
  C        -2.9662420731       14.4278623732       18.1009501579
  C        -3.1653454270       13.6359763535       15.7125319617
  C        -2.5410060926       13.1017674277       18.7650142316
  H        -2.7604374326       15.2755887406       18.7028356749
  H        -4.0813753923       14.4227457342       17.9292817420
  H        -2.8038866103       12.6436673396       15.9892372616
  H        -4.2446447389       13.5431776820       15.8960023434
  H        -2.9696733919       13.7757779956       14.6690957129
  C        -1.5617527307       13.2391240035       19.8819536364
  H        -2.0605647088       12.4026345348       18.0341001051
  H        -3.4363421259       12.5666326542       19.1344147350
  C        -2.1438892730       13.3125152981       21.3151557559
  H        -0.8299963999       12.4152557419       19.7822654081
  H        -1.0230999026       14.1792133704       19.6766806359
  C        -1.0507985237       12.9577559267       22.3554229283
  H        -3.0480457428       12.6727106741       21.4494103576
  H        -2.4566892113       14.2978938173       21.5810902330
  C         0.2283187331       13.8411242710       22.4377959890
  H        -1.5432119189       13.0135106451       23.3630691697
  H        -0.7657266791       11.9516920317       22.1362726200
  C         1.3444291208       13.3053976175       23.3539280532
  H         0.7598712988       13.9635165826       21.5298218556
  H        -0.1066901125       14.8029926831       22.8216394018
  C         1.7969036755       12.0114334658       22.6628211930
  C         0.9132761005       12.6311656846       24.5888383335
  C         2.5858436357       14.2148459081       23.5123339891
  C         1.3856251010       10.9182636095       23.4619112160
  C         2.2762475723       11.6205024034       21.3910272109
  C         0.9114553071       11.3088817299       24.6558015257
  C         0.4109529109       13.2686177519       25.7354095588
  H         2.7315258112       14.8667872935       22.6557059409
  H         2.3060568817       14.9343903649       24.2899892635
  C         3.8045537507       13.4813913009       23.9824374040
  S         1.7676397791        9.3944391871       22.7771504222
  C         2.3985567800       10.2468063115       21.3130774740
  H         2.5800791420       12.3568530644       20.6444127736
  C         0.4473686787       10.6359023655       25.7598138174
  H         0.3454136947       14.3393302810       25.6902527594
  C         0.0167166709       12.5924316301       26.8796122439
  H         4.1178997256       12.8259862312       23.1832281154
  H         3.5841714903       12.8337777596       24.8851545207
  C         5.0570360285       14.3888242035       24.2547150450
  C         2.8046805184        9.4893750183       20.0367181510
  C        -0.0456345845       11.2455680862       26.9324047066
  H         0.3482257081        9.5793452715       25.6996818183
  C        -0.5383589012       12.9571759549       28.1312034482
  H         5.8633913089       13.8550048168       24.8637620774
  H         4.7606278030       15.2488755108       24.8383237904
  C         5.8743855573       14.9635205618       23.1502121506
  C         2.7194561411        8.1303640393       19.7796620013
  C         3.3287489670       10.4438883623       18.9312421690
  C        -0.5609467205       10.4769527342       28.1695252400
  C        -0.8278080017       11.7979626967       28.8803743093
  S        -0.9778100682       14.4245256718       28.8965492690
  H         6.6124494412       15.6589136221       23.5461336657
  H         5.2196225961       15.6005294643       22.5523958617
  C         6.5180674401       13.8766570073       22.2247699517
  N         2.3339005752        7.1970076482       20.7310205210
  C         2.9714776054        7.6282385713       18.5355520244
  C         3.5747698229        9.8532374879       17.6564888133
  H         3.6428038515       11.4228974075       19.1310030443
  C         0.5559470161        9.5665570986       28.7893639988
  C        -1.8355553784        9.6992122726       27.9634191516
  C        -1.3101641469       12.2480157924       30.1531818294
  C        -1.3113681632       13.5667751421       30.3076364495
  H         7.6652951692       13.9506272681       22.1334145603
  H         6.4907029839       12.9399791292       22.7404316813
  C         5.7504238064       13.9596933992       20.8529517383
  S         2.5615742135        5.7071124471       20.0305898208
  N         3.0299793169        6.2470541762       18.5570678652
  C         3.3936388250        8.4424868484       17.4317325775
  H         3.9021492379       10.4620292955       16.8581572541
  H         0.8839235662        8.9490413204       27.9893342559
  H         0.0367959737        8.9948437986       29.6207461724
  C         1.8234255668       10.4155686193       29.2622742452
  H        -1.6564011281        8.9692589725       27.2001522028
  H        -2.1658363787        9.2205431927       28.8327443658
  C        -3.0863518977       10.5130072297       27.4992977029
  H        -1.6195106363       11.5079995524       30.9133174803
  C        -1.4349482018       14.3018372490       31.6569796224
  H         5.7145711408       14.8655339465       20.3969730016
  H         4.7551655977       13.4340170777       21.0033389297
  C         6.4405633970       13.2179150523       19.7398931206
  C         3.6349771270        7.8231224906       16.2351498535
  H         2.2400947159       11.0269764735       28.4528841488
  H         1.3476098448       11.1181227682       29.9870331189
  C         2.8563451051        9.5085516754       29.8762738545
  H        -2.8565902444       10.9017265436       26.5806781298
  H        -3.3962391170       11.4317414625       28.1274407848
  C        -4.3057160043        9.6248340268       27.3393127956
  C        -1.4417106353       15.6917610517       31.8615636712
  C        -1.5746306610       13.4861090983       32.9599064404
  H         7.2285999847       12.4688319815       19.9815387511
  H         5.7040606448       12.8517155870       19.0688602183
  C         7.2275938982       14.1938785587       18.9537458432
  H         3.8192429287        6.7989779950       16.3175370904
  C         3.9398400468        8.2408141450       14.9455694338
  H         3.4601877432        8.9954112863       29.2174993149
  H         2.3463942553        8.8584445604       30.5616428496
  C         3.7353975628       10.4244175093       30.7078701110
  H        -4.0425016506        8.8443936961       26.6653112907
  H        -4.5975288703        9.2324801749       28.2675934600
  C        -5.5668616625       10.3382404307       26.9165420023
  N        -1.3237829780       16.6295316726       30.8276493100
  C        -1.6828688392       16.2948584430       33.1115668104
  C        -1.9654387824       14.0993660188       34.1237643816
  H        -1.5891597369       12.4083359329       32.8653355256
  H         6.6070267556       15.0634134629       18.5222741512
  H         8.0003433412       14.6368870121       19.5411656677
  H         7.5800291925       13.6086726597       18.1132067699
  S         4.1348023462        9.8272181624       14.3598117986
  C         4.2089764072        7.1504256700       14.0066548387
  H         3.9832644921       11.2785077490       30.1071615943
  H         3.2353935648       10.7304723502       31.6361541619
  C         5.1368581952        9.7590167251       30.8845046421
  H        -5.7529207630       11.1516142702       27.5797634802
  H        -6.4264444495        9.6423926820       27.0825022371
  C        -5.6141915253       10.8059057588       25.5174796010
  S        -1.3471847125       18.1348036908       31.4585813413
  N        -1.7579187699       17.7134237447       32.9886561986
  C        -2.0613181227       15.5801771131       34.2383725740
  H        -2.2739857622       13.4594914521       34.9197983151
  C         4.3865855012        9.0446024894       12.8020121204
  N         4.5501575791        7.6913958326       12.8407375223
  O         3.9670615323        5.9782840564       14.2254670465
  H         5.9688225030       10.3069978371       31.3726480069
  H         5.5149833886        9.4929750269       29.9427775953
  C         5.0355438859        8.3968213727       31.5434863182
  H        -4.7478536963       11.4915609803       25.2838018745
  H        -5.4908438615       10.0660903795       24.7750317027
  C        -6.9073891055       11.5351308911       25.1883284442
  C        -2.4512203884       16.3410923678       35.3933210829
  S         4.8973652364        9.8776532657       11.3769356010
  C         4.4898176143        6.8384104035       11.6586112196
  H         4.4699982741        8.4155770594       32.5027476506
  H         4.3269356051        7.7506494820       30.9349212002
  C         6.3923935488        7.6861920744       31.7460775131
  H        -6.5849488629       12.2688992883       24.4874281296
  H        -7.2904435627       12.1859356613       26.0434655354
  C        -7.9202487516       10.7715780742       24.4356363217
  H        -2.0607325486       17.3344395424       35.3374851388
  C        -3.0548958835       16.0018456055       36.5835658831
  H         4.9087328062        7.4040347089       10.7800511267
  H         5.0392297825        5.9383988235       11.8578647747
  C         3.0629700183        6.5921332087       11.2277434370
  H         6.2141446098        6.9381410755       32.4941928938
  H         7.1856324256        8.3144249486       32.1356214560
  C         7.0616029217        6.9929079277       30.5665690024
  H        -8.3962001801       11.4164957347       23.6891763627
  H        -7.4845078373       10.0086999098       23.8048128699
  C        -8.9836436952       10.1950764409       25.3285945937
  S        -3.6904586731       14.4680836234       36.9852142664
  C        -3.1803227824       17.0475356829       37.6248166472
  H         3.1528353453        6.2091798810       10.1889669375
  H         2.5346233082        5.9024728843       11.8491294428
  H         2.4569175755        7.5179764665       11.2246126715
  H         7.5458524471        7.6566469729       29.8374212159
  H         6.3413577397        6.5686555671       29.8796624291
  H         7.7273023698        6.2159610914       30.9436715040
  H        -9.7072990691       10.9800662955       25.7162698710
  H        -8.4039479994        9.7435021076       26.1197697389
  H        -9.4865650394        9.4454286028       24.7776861856
  C        -4.1228487992       15.1178898306       38.4942901055
  N        -3.8397399042       16.4365008667       38.6397115006
  O        -2.8087076707       18.2516208603       37.5759144512
  S        -4.8726169876       14.1444396091       39.8151245429
  C        -4.0401454912       17.2309936433       39.9191849966
  H        -4.1472417702       18.2911189331       39.7473600079
  H        -4.8871280567       16.9405643353       40.5339379571
  C        -2.8743641355       16.9127525874       40.8439705704
  H        -3.0328994088       16.0109553238       41.5220719909
  H        -1.9481554194       16.7530596964       40.2152027819
  H        -2.6882757198       17.7858939667       41.5110549880
