352
i=
  H         1.8753027962        1.0657011889       12.1270159030
  C         2.7594728035        1.5910444837       12.0779231728
  H         3.5870499710        0.8726920704       12.1077264618
  C         2.7452117554        2.5102566388       10.7769045951
  C         2.9393934642        2.3847702152       13.3484533601
  C         4.0177240741        2.6935847497       10.1188258365
  H         2.3226819303        3.5097076547       11.0506585471
  H         2.1291533557        2.0317413380       10.0397717194
  H         2.6156363164        1.7846521901       14.1249585959
  H         2.3064736112        3.2675862684       13.3987637118
  H         3.9874490495        2.5848017978       13.4005124046
  C         4.6713572875        1.3385668399        9.7399245405
  H         3.7510981078        3.3366786811        9.2552171008
  H         4.6921193059        3.3453965535       10.6595983810
  C         5.4950503595        1.4561362723        8.5016052722
  H         3.9281033370        0.5903597427        9.6318123375
  H         5.3764113294        0.9896740272       10.5749321827
  C         6.6300974390        2.4908576250        8.6762071404
  H         4.7489347915        1.9404752353        7.8135443495
  H         5.8326747878        0.4972129018        8.0731876029
  C         7.9528633584        1.9734284191        9.3372193317
  H         6.9058207819        2.7880464078        7.6801837054
  H         6.3462705750        3.4499995495        9.1818977816
  C         9.1828432473        2.8907513839        9.3864021121
  H         8.2086110888        0.9720232284        8.9991475137
  H         7.5620132713        1.8770170779       10.3496413968
  C         8.8056549057        4.2043370261       10.0682058498
  C         9.6301255257        3.6431338262        8.1727722044
  C        10.3096104265        2.1706587384       10.1164564522
  C         9.0638500312        5.3519362841        9.3787995756
  C         8.2041828233        4.4818735326       11.3157664312
  C         9.6625929984        4.9879644588        8.1562657399
  C        10.0164763474        3.1445348939        6.9160823949
  H         9.9581767736        1.6289629740       10.9459675158
  H        10.6998344898        1.3842625527        9.4226394844
  C        11.5288359014        2.9831304391       10.5699383888
  S         8.5696229230        6.7891280797       10.1460352969
  C         8.0155801170        5.8411870103       11.4661284647
  H         7.9672079997        3.6225932648       11.9853912575
  C         9.9018591715        5.6749047020        6.9787463937
  H         9.9857467819        2.1096024948        6.8813456867
  C        10.4008974235        3.8030207044        5.7990900321
  H        11.0869713799        3.6667020347       11.4009735470
  H        12.0282710647        3.4679218486        9.8040384993
  C        12.5755477330        2.1497945634       11.3221119313
  C         7.4712988870        6.5197335060       12.7400982554
  C        10.3438399746        5.1445780267        5.7894333893
  H         9.8080133415        6.7350743300        7.0234627116
  C        10.7957891855        3.5107387682        4.5047738772
  H        13.4394928499        2.8074635895       11.3678586627
  H        12.6688194586        1.3248500688       10.6629336065
  C        12.0767277725        1.6149671622       12.6317498821
  C         7.4381325345        7.9442277383       13.0040176395
  C         7.1467829310        5.6892524246       13.9575771899
  C        10.6778212182        5.9363311760        4.5097590717
  C        10.9819835429        4.6536175842        3.7307599776
  S        11.1512332504        2.0650616067        3.7196393768
  H        11.2760679593        0.9875038909       12.5440693776
  H        12.9093832552        0.9790967457       12.9750939489
  C        11.8026460995        2.5440248110       13.7638303228
  N         7.7372925792        8.9014390551       12.0358448936
  C         7.1835468541        8.4936560222       14.2667135617
  C         6.9069318807        6.2638992473       15.2112098366
  H         6.9312235048        4.6673803634       13.8322510202
  C        12.0245787638        6.6148420352        4.7062454008
  C         9.5690120334        6.8972923170        4.0009702508
  C        11.3465577704        4.2996415376        2.4208017936
  C        11.4554658398        2.9165885294        2.2716608270
  H        10.7938931223        3.0494746007       13.6123177976
  H        12.4096750231        3.3682658905       13.4793876716
  C        11.7489748120        1.9403741861       15.1950014894
  S         7.6279766977       10.3255513631       12.8227525524
  N         7.4444008801        9.8968701317       14.3787533147
  C         7.0153798724        7.6870418305       15.4410671912
  H         6.8432116350        5.6462922350       16.0912199014
  H        11.7353958991        7.4817043631        5.3295884559
  H        12.4139635982        6.9413801006        3.7518654878
  C        13.1107287203        5.7667646571        5.2922608941
  H         9.3149466877        7.4421074493        4.8873247044
  H        10.0385034901        7.5035231912        3.1906437871
  C         8.3350519088        6.2723948328        3.4546645095
  H        11.5244123204        5.1083326625        1.7451053327
  C        11.8347787137        2.1318625332        1.0375592079
  H        10.7883540669        2.2973381045       15.6619096059
  H        11.6376145311        0.8218998090       15.1287735242
  C        12.9749550435        2.2683447586       16.0481590690
  C         6.8905411192        8.3123496130       16.7238017678
  H        12.8180566000        5.3240240661        6.2907065930
  H        13.4387865872        4.9498553675        4.6505448293
  C        14.3170429591        6.6482247162        5.3125492611
  H         7.4453192305        6.7188445987        3.8587700833
  H         8.3958978061        5.2206685658        3.6814519871
  C         8.2726942502        6.3699329328        1.8778143067
  C        12.0743753084        0.7271844716        0.9576443752
  C        12.1020924589        2.9720611018       -0.1361242458
  H        13.5204387220        3.0106258320       15.4437157295
  H        13.5601354819        1.3402930063       16.0921681835
  C        12.7885716250        2.9021261835       17.4280081136
  H         7.0077880945        9.4146005058       16.7765164104
  C         6.6446700741        7.8472431659       17.9894903974
  H        14.1126406574        7.7437178072        5.4892944455
  H        14.6820787188        6.6398570862        4.2973056664
  C        15.4441372045        6.1466416097        6.2337173956
  H         8.5027677779        7.3853299271        1.5821218306
  H         9.0884131775        5.7340310943        1.5889387781
  C         6.9235107578        6.0278315717        1.2198682762
  N        11.8591469252       -0.1196067648        2.0297764090
  C        12.2760439750        0.1090681039       -0.2394917644
  C        12.4709997949        2.3047032717       -1.3323563240
  H        11.8384166723        4.0133556809       -0.2371609300
  H        12.3258959119        3.8346354715       17.4787647961
  H        13.7854885331        2.9487353499       17.6313168924
  H        12.4093166516        2.2634283137       18.2153578987
  S         6.2723590993        6.3206550388       18.4815410702
  C         6.6078443481        8.8376286296       19.1243902100
  H        15.5202360164        6.8031268344        7.0652926134
  H        15.2142221888        5.1625404920        6.6881551851
  C        16.7581215126        5.8546997979        5.4637175868
  H         6.9953971614        4.9874412233        1.0362480101
  H         6.9729159680        6.5798389659        0.2748030671
  C         5.6291886371        6.0939733436        2.0263954727
  S        12.0290760732       -1.6453224065        1.4761177202
  N        12.3537723705       -1.2957388603       -0.0692739366
  C        12.6425232487        0.8005703581       -1.4274496805
  H        12.5563670423        2.9123974154       -2.1676255042
  C         6.0016308602        6.9622109659       20.1126784883
  N         6.2239267800        8.2858869846       20.2656453224
  O         6.9859711253        9.9900596648       18.9963344595
  H        16.5407870565        5.5516965509        4.4083652303
  H        17.2209782480        6.8256114816        5.1963703509
  C        17.7865517597        4.8907816666        6.0776559710
  H         4.9067051989        5.6085489434        1.3699761504
  H         5.7256834251        5.3954685435        2.9009741435
  C         5.2804949822        7.5331671043        2.4819210848
  C        12.8232192258       -0.0471877170       -2.5636510475
  S         5.6210903942        5.8849457569       21.4912414329
  C         6.3570824951        8.9281129873       21.5264111663
  H        17.2087077143        4.1108139708        6.5430724795
  H        18.3523711156        4.5352347925        5.2355813920
  C        18.5938483651        5.5246055834        7.1913045695
  H         6.1143510275        8.2015140641        2.4023465632
  H         5.1342253173        7.4160950180        3.5498990856
  C         4.0366988920        8.1307127540        1.7515445198
  H        12.4726847124       -1.0438474430       -2.5142422817
  C        13.4147460467        0.0846075713       -3.7919880069
  H         5.7287488018        8.3740137099       22.2717180344
  H         5.6707181546        9.8087720990       21.4751776638
  C         7.7467903972        9.3128255810       21.9310285551
  H        18.3608926334        4.8285171552        7.9877256623
  H        18.1751973774        6.5256956562        7.4503598810
  C        20.1150966017        5.4567008336        7.0379500397
  H         4.0746314941        7.5764803524        0.8855501908
  H         3.2101090818        7.8778764668        2.3693383933
  C         4.1635850776        9.6939038576        1.5910217292
  S        14.0834829880        1.5896919953       -4.2653947749
  C        13.4922762534       -1.0330928349       -4.7424458406
  H         8.4427236235        9.5580908924       21.1331060994
  H         8.2863401490        8.5721495161       22.5105244064
  H         7.8302692148       10.1777892920       22.5300449424
  H        20.6089223832        5.5731207184        8.0331840848
  H        20.4247849669        4.5509469974        6.5679963077
  H        20.4889863060        6.2158421564        6.4421788790
  H         4.9386751978        9.9308933919        0.8847671360
  H         3.1689990148       10.1568150610        1.3069026006
  H         4.4163295364       10.0792631051        2.5721327809
  C        14.4693247432        0.7343847030       -5.8213454173
  N        14.1747924959       -0.5947635817       -5.8384425872
  O        13.1463413556       -2.2207943063       -4.5135096659
  S        15.4285726857        1.3734433581       -7.1964733158
  C        14.5187801897       -1.4496844297       -6.9315846882
  H        14.8082413605       -2.4592289126       -6.6126888523
  H        15.5137963855       -1.2617926772       -7.3939476161
  C        13.3688652866       -1.4727786644       -7.9833545676
  H        13.4402644691       -2.4458764410       -8.5062209668
  H        13.5345258957       -0.7015702731       -8.7633009354
  H        12.3990360718       -1.4414967587       -7.4674221292
  H        -3.8733127699       14.3083911884       16.5044441547
  C        -3.1152974367       13.4803643297       16.4875880324
  H        -3.6811404049       12.6386711476       16.6160554931
  C        -2.1660988306       13.6825866576       17.6806624858
  C        -2.4253942793       13.1752289807       15.2110732238
  C        -2.7755711296       13.4955889488       19.0820507190
  H        -1.3420080855       12.9290830354       17.5513598113
  H        -1.7724891701       14.6812211307       17.6324627806
  H        -1.9165430039       13.9749009995       14.7517007796
  H        -1.5659604778       12.4729667199       15.4537830254
  H        -2.9555895072       12.5384698043       14.4995276848
  C        -1.6521875469       13.2244928253       20.0847557093
  H        -3.5736051509       12.7213590646       19.0488807336
  H        -3.3049658678       14.3863706248       19.4010988081
  C        -2.1927185792       13.1260326270       21.5233362643
  H        -1.2360365369       12.2051844357       19.8347889426
  H        -0.7928031638       13.9362361481       20.1076325609
  C        -1.1316136616       12.5626135065       22.4261701618
  H        -3.1493022305       12.5314609464       21.6712093573
  H        -2.5022975502       14.1287845509       21.8605722742
  C         0.0661686013       13.4766705935       22.6375195795
  H        -1.6828604381       12.3682933168       23.3432928577
  H        -0.8124001207       11.6029429850       21.9289187399
  C         1.2542009121       12.7563505989       23.3048287334
  H         0.4931396389       13.8372052590       21.6858457261
  H        -0.1383739087       14.3990178637       23.1817202071
  C         1.7041364175       11.5228326121       22.6677595115
  C         0.8241644545       12.0822035714       24.5367080343
  C         2.4301416643       13.7274415376       23.6051769914
  C         1.6035786789       10.4196378376       23.4466530182
  C         2.2163731480       11.1460418958       21.3532471523
  C         1.0145561125       10.7544685696       24.6781131035
  C         0.3144264816       12.6469479308       25.6606675924
  H         2.7670880905       14.2528798003       22.7155741939
  H         2.0550626577       14.4808936006       24.2576178731
  C         3.6634951263       13.0690486871       24.2158263373
  S         2.0552073741        8.8717686865       22.7315599031
  C         2.3972506701        9.7876483959       21.2676338573
  H         2.4456545446       11.8977263337       20.6939912380
  C         0.6036709972       10.1209602816       25.7918232532
  H         0.2043137386       13.6973994982       25.5841733838
  C        -0.0915822199       11.9769450996       26.7700707593
  H         4.0682572878       12.2357880082       23.6024470746
  H         3.4602151528       12.5484905961       25.1448446040
  C         4.7906446154       14.0822016907       24.5310994699
  C         2.7172432427        9.0769564889       20.0316244367
  C         0.0219013903       10.6409252222       26.9470715207
  H         1.0470454586        9.1368654333       25.8500711580
  C        -0.4784210931       12.3577162995       28.0656720262
  H         5.3908619606       13.7550582814       25.3785592818
  H         4.3979780936       14.9310537383       25.0885557980
  C         5.5776463948       14.7042025120       23.4286410697
  C         2.6400885679        7.6996709040       19.7766334222
  C         3.1075456969        9.8844288149       18.8649299909
  C        -0.3937591709        9.9293268813       28.2176728486
  C        -0.6391200062       11.2676032331       28.9297889824
  S        -0.7109345053       13.8683728304       28.8157258671
  H         6.3156088313       15.2054093026       23.9676032392
  H         4.8027408772       15.4185241583       23.0019271559
  C         6.2336174939       13.6498123643       22.4497199998
  N         2.2768360151        6.7597840605       20.7133521907
  C         2.8370408949        7.1761518025       18.4789391255
  C         3.3115130191        9.3837443017       17.5559240411
  H         3.2602018524       10.9592518605       18.9224663698
  C         0.7552106609        9.0828787447       28.9408929008
  C        -1.7097098940        9.1361484377       28.0536726735
  C        -1.0240268301       11.7150085913       30.2349242521
  C        -1.0912281136       13.1147343576       30.3459111869
  H         7.2911276959       13.8838750626       22.1205126019
  H         6.3071245360       12.6637106633       22.9482126321
  C         5.2504994945       13.4677727058       21.2381410392
  S         2.3667404636        5.3137340013       19.9036734409
  N         2.5669586038        5.8433708360       18.4261388502
  C         3.2602206326        7.9564685374       17.3494851451
  H         3.4694235854       10.1453968720       16.7573827889
  H         1.2191313092        8.4197763394       28.2287125501
  H         0.2888063035        8.5077367903       29.7551593641
  C         1.9579453544        9.9418534387       29.6366994957
  H        -1.5006285070        8.1933576406       27.5098084072
  H        -1.8992258480        8.7412346191       29.1136466741
  C        -2.9776628855        9.9126211503       27.5616628479
  H        -1.3483877483       10.9470530206       30.9086014323
  C        -1.3501545065       13.9408169168       31.6137026024
  H         4.9198478350       14.4250703491       20.7327659109
  H         4.3247534059       12.9368110044       21.5077636899
  C         5.9983745579       12.6966177071       20.1335537452
  C         3.5098110031        7.2537224447       16.1198733076
  H         2.7942753965       10.1425956112       28.9154359009
  H         1.6245388363       10.9324305386       29.9390846931
  C         2.4818820622        9.1698463496       30.7720804469
  H        -2.8523102113       10.2963279283       26.5595792411
  H        -3.1351970364       10.7968317113       28.2014949416
  C        -4.2048454151        9.0244568696       27.7313540766
  C        -1.3699677474       15.3751090855       31.6735738344
  C        -1.5984379840       13.2187262484       32.9538600399
  H         6.8075041142       12.0578507365       20.4965324556
  H         5.2903076586       12.0254368636       19.5622596239
  C         6.7011024463       13.8033320947       19.2317325077
  H         3.7667429128        6.2255131600       16.3258470257
  C         3.7444400120        7.6975777351       14.8266538646
  H         2.8401568167        8.2648118178       30.3529324886
  H         1.6399606044        8.9394831519       31.4139396286
  C         3.6105487586        9.7828581033       31.6692629730
  H        -4.0177567420        8.0873967971       27.1675357077
  H        -4.2963036841        8.7533441559       28.7751074145
  C        -5.5395114703        9.6145894889       27.2386016230
  N        -1.1542571207       16.2346697016       30.5548195697
  C        -1.7057158491       16.1215894694       32.7942836273
  C        -1.8845630112       13.9431145857       34.1130546669
  H        -1.3558449273       12.1984860611       33.0287214208
  H         6.1028783956       14.7424552233       19.0973163983
  H         7.6838988852       14.0686819438       19.7248155868
  H         6.7917352866       13.2739106276       18.2263876146
  S         4.0298617434        9.3102865687       14.3152905340
  C         3.8263430048        6.6508140410       13.8116378575
  H         3.7776599204       10.8064090631       31.5304890272
  H         3.4150203217        9.6017891562       32.7429717745
  C         4.8931937245        9.0119382976       31.2888809540
  H        -5.7016306747       10.5272870757       27.7717362890
  H        -6.3496290535        8.8967361587       27.6037292893
  C        -5.6929937404        9.9851978723       25.7680074631
  S        -1.3198280629       17.8045209051       31.0320078352
  N        -1.6060304470       17.5120612161       32.6447298368
  C        -1.9717071276       15.4639115694       34.0535468280
  H        -2.0818038177       13.4648649244       34.9837819053
  C         4.0534391697        8.5360673779       12.6936967096
  N         4.0846112066        7.2160672269       12.6175221145
  O         3.5289651652        5.4986826053       14.0029472361
  H         5.7599466001        9.3409845653       31.8429288375
  H         5.1563712089        9.0724869479       30.2304489231
  C         4.9341070122        7.5221439479       31.7396969253
  H        -4.8735975250       10.7246720733       25.4431448302
  H        -5.5664033489        9.1755600920       25.1199213588
  C        -6.9421417854       10.7620536763       25.4826024426
  C        -2.3303301268       16.2858829835       35.1851469066
  S         4.6177582066        9.4046553386       11.2352457981
  C         4.0750135076        6.4418002014       11.3954645865
  H         5.5254222191        7.3435774593       32.5907247242
  H         3.9675737335        7.1406763485       32.0147798703
  C         5.4722571129        6.6272291419       30.6744226862
  H        -6.7614134807       11.6510430217       24.8024878343
  H        -7.2854058303       11.2773439623       26.4036821620
  C        -8.0994834720       10.0395494957       24.8345108558
  H        -2.0108601028       17.3109889754       35.1907202168
  C        -2.8880555104       15.9342799511       36.4101218525
  H         4.8092739034        6.8457432406       10.6648537014
  H         4.3741134891        5.3892815824       11.6713184116
  C         2.6720828531        6.4058260664       10.7927707262
  H         4.9784667629        6.7499905199       29.7424535929
  H         5.1680637929        5.6255109200       31.0028380266
  C         6.9840729466        6.7032266149       30.5039056851
  H        -8.5604430839       10.5214764843       23.9862540250
  H        -7.6605581618        9.1176805331       24.4071213000
  C        -9.1772599067        9.8123713637       25.9268832603
  S        -3.3956747485       14.4082543545       36.8803264139
  C        -3.1118189972       17.0030367036       37.4015735667
  H         2.5726697718        5.5638903779       10.1120373543
  H         1.9629539610        6.2717802638       11.5697453007
  H         2.4607982289        7.3006968804       10.1862172600
  H         7.3434134533        6.6240362030       29.4198735825
  H         7.3110950745        5.8314430685       30.9643788369
  H         7.3514380140        7.5361290158       30.9609459462
  H        -9.6152999680       10.7791469146       26.1287410115
  H        -8.7753740300        9.3947238444       26.8508107971
  H        -9.9911997015        9.1393371144       25.6090428189
  C        -3.8498497364       15.1369971517       38.4104742433
  N        -3.7341117526       16.4668151780       38.4337070884
  O        -3.0616214870       18.2092898650       37.1403069575
  S        -4.4744706140       14.2635067900       39.8414612054
  C        -4.0692261397       17.2256847807       39.6734386473
  H        -4.2604448498       18.2469169736       39.4645176383
  H        -5.0578725303       17.0085822784       40.0740269947
  C        -2.9133915813       17.1624175528       40.7211609636
  H        -2.8833745141       17.9653519472       41.4206077502
  H        -2.9412462042       16.2847567413       41.3647396502
  H        -1.8821169420       17.1189618956       40.2896785031
