352
i=
  H         3.4578030156        3.8314478421       12.6396938582
  C         3.5690176822        2.7725750271       12.5621453940
  H         2.9026426629        2.3213218071       13.2796547471
  C         3.0188257632        2.3262144244       11.2183295743
  C         5.0550985205        2.4043026085       12.8587456826
  C         3.7827579059        2.8125013207        9.9941918692
  H         1.9843177686        2.6560037286       11.2050328277
  H         2.9431594075        1.2485981332       11.2071789925
  H         5.1929673612        2.0632221055       13.9070312102
  H         5.7283080501        3.2110097117       12.7582255371
  H         5.4451084556        1.6770699662       12.2097311414
  C         4.6642553619        1.5872302382        9.5124582925
  H         3.0517091999        3.1966627717        9.3123337386
  H         4.3610163697        3.7309069152       10.1776822460
  C         5.5376332733        1.8248887052        8.3060136920
  H         3.9692271015        0.7248214613        9.2397132143
  H         5.3281458789        1.1578991691       10.3029330317
  C         6.7490648909        2.7333464533        8.6269072031
  H         4.9024530660        2.1897732694        7.5141826091
  H         5.9630985650        0.8777295274        7.9193875750
  C         7.9439500192        1.9461862685        9.1283618166
  H         7.0390957616        3.3652110064        7.7363405414
  H         6.4999259775        3.4521806265        9.3208566118
  C         9.2089380028        2.8252359132        9.3318210997
  H         8.1797555043        1.2612109476        8.3013784498
  H         7.8279218338        1.2665505641       10.0094351365
  C         8.9342565821        4.1964921243        9.8835677563
  C         9.6828926731        3.4901809052        8.0650260934
  C        10.3564630956        2.1940147544       10.1152771334
  C         9.2988498336        5.3155573711        9.1674179171
  C         8.4134863266        4.6461666626       11.1220086676
  C         9.7290605772        4.8414499216        7.9603324132
  C        10.0858080910        2.9009304366        6.8140466124
  H         9.8431185724        2.0063091898       11.0228833565
  H        10.5608088821        1.1551709982        9.6663056480
  C        11.6374164360        3.0176683610       10.2972683191
  S         9.0303259005        6.8583121705        9.8805700430
  C         8.3849605923        6.0271657587       11.2376905936
  H         8.0954948198        3.9567150693       11.8237827711
  C        10.1640134005        5.4890926092        6.8228876801
  H        10.0086137306        1.7726966286        6.8894506815
  C        10.5355071510        3.4689871961        5.6484687229
  H        11.3937066243        4.0374005836       10.6439935001
  H        12.1444353987        3.1473125603        9.3418604815
  C        12.6389249896        2.3587864775       11.1794537282
  C         8.1322303300        6.7417269869       12.5295379893
  C        10.5704349891        4.8568856439        5.6024138700
  H        10.1131665851        6.5678966740        6.8895082055
  C        10.9405623035        3.0553510706        4.4367308606
  H        13.5629540896        2.9691917137       11.2229154085
  H        12.9728415418        1.3918779695       10.8624663807
  C        12.0709048953        2.3426822044       12.5540075799
  C         7.9174841703        8.0983701372       12.7187434841
  C         7.8635112677        5.9091802646       13.7372280299
  C        10.9188926860        5.4805414521        4.3347567462
  C        11.1022040352        4.1226684329        3.5891449486
  S        11.3311126956        1.5179260782        3.7445476196
  H        11.4051547263        3.1928946491       12.6271445802
  H        11.4470393130        1.4559798172       12.8453969441
  C        13.2215648973        2.2218828236       13.5444492634
  N         8.0518654216        9.1126762299       11.7891481057
  C         7.6692803303        8.6667686359       13.9597796272
  C         7.5417594586        6.4769539858       14.9545742951
  H         7.9134494539        4.7718183879       13.6234178848
  C        12.2732429042        6.2718097006        4.3643298848
  C         9.6445792537        6.2335799941        3.7077104039
  C        11.5952325520        3.7453938363        2.3390046651
  C        11.6337061068        2.3781779332        2.2548913745
  H        13.7382877915        3.1684817790       13.5905954036
  H        13.9415906686        1.5134557114       13.0585866172
  C        12.8082505207        1.7021706172       14.9223113726
  S         7.7370730982       10.5216051030       12.4925173045
  N         7.6578291371       10.1117412647       14.0032091140
  C         7.3643709100        7.9004896759       15.1318433856
  H         7.5703794130        5.8518121264       15.8115920173
  H        12.0806192502        7.1826234567        4.9058028339
  H        12.5334890453        6.5941205186        3.3689408000
  C        13.3715072539        5.4712480813        5.0436801481
  H         9.0078940369        6.5372532132        4.5232542593
  H         9.8990826694        7.0876641610        3.0626871803
  C         8.5914261145        5.2945700253        2.9692432213
  H        12.0184911415        4.4380767728        1.6377086672
  C        11.9483379951        1.5265717386        1.0076800981
  H        11.8713416340        2.1737637357       15.1788143684
  H        12.5410354733        0.6095381367       14.9212158137
  C        13.6838033035        2.0672603093       16.1387189797
  C         7.1377827609        8.5699349888       16.3651177645
  H        13.0480344776        5.0389051951        5.9599643489
  H        13.4677232781        4.6119943569        4.3473691033
  C        14.7860864315        6.0626514030        5.2544714122
  H         8.1868419432        4.6002436426        3.7380823227
  H         8.9633306148        4.6662956153        2.1423471974
  C         7.4530407244        6.1607870181        2.3831906005
  C        11.9232529863        0.1008153799        0.9767508059
  C        12.2682625637        2.1930635420       -0.2767164423
  H        14.4986101847        2.8035360010       15.9705805794
  H        14.1838420892        1.1729163488       16.4842980231
  C        12.9203547380        2.6885628761       17.2877059641
  H         7.2109396889        9.6890683042       16.3658581705
  C         6.8849850654        8.0394738334       17.6147044301
  H        14.6748244519        6.9817264300        5.7993571294
  H        15.2461362271        6.3690661230        4.3404583472
  C        15.8541926067        5.2309862485        6.0786366507
  H         7.1326884767        6.6827575184        3.2523961580
  H         7.8243220026        6.9668309165        1.7251043286
  C         6.2982836533        5.4133978640        1.7796921052
  N        11.5768064591       -0.7712299662        2.0549922825
  C        12.3972220498       -0.6000658280       -0.1234727675
  C        12.6053820693        1.4786419334       -1.4243276168
  H        12.3637289633        3.2396208745       -0.3598488462
  H        13.3377465948        3.6976011944       17.4598175827
  H        13.0589377090        2.1121780042       18.2311325161
  H        11.8773558956        2.7754952731       17.1203886657
  S         6.5507111142        6.4204058437       18.0365650639
  C         6.7519763027        8.9683851333       18.7670066420
  H        15.4827600227        4.9609688189        7.0617411525
  H        16.0145785838        4.2535923775        5.5949229939
  C        17.1157529498        6.0171608145        6.3899987952
  H         5.7874423435        4.9046783319        2.5715309857
  H         6.4879404360        4.5139150792        1.2123848570
  C         5.4995681042        6.4638290864        1.0663332938
  S        11.7192316414       -2.2985566716        1.4883295858
  N        12.5109219890       -1.9692751633        0.0790315899
  C        12.7257474606       -0.0513646807       -1.3444996715
  H        12.7824691207        1.9479216923       -2.3943088429
  C         6.3124607232        6.9258835333       19.6820631620
  N         6.3429406798        8.2883589007       19.8500431361
  O         7.1426636747       10.1594147969       18.8029974669
  H        17.6154206752        6.2157509562        5.3855227721
  H        16.8249000971        7.0156009079        6.8023558274
  C        18.0887108528        5.2734086876        7.3303614898
  H         6.0732601264        7.0881035383        0.3924314863
  H         4.8138867446        5.8899186058        0.4180477616
  C         4.7299888107        7.4150194941        1.9804941026
  C        12.9601008829       -0.9769763729       -2.4646935553
  S         5.7721172359        5.8691333226       20.9605307619
  C         6.2145818435        8.9370237254       21.1698422454
  H        17.7953707122        5.2029145793        8.4528992168
  H        18.1620312551        4.2657320389        7.0266972134
  C        19.4315846162        6.0084531844        7.3380907454
  H         5.5199667842        8.0335333116        2.5826212376
  H         4.2905668391        6.7766727524        2.7332505067
  C         3.7877405462        8.3352496937        1.2571701024
  H        12.6062395895       -1.9631229049       -2.2866610785
  C        13.4590648199       -0.7276260630       -3.6923072689
  H         5.4822812066        8.5532830580       21.8352247562
  H         5.7948895049        9.9516217458       21.0611579806
  C         7.4981232197        8.8930360281       21.8942737249
  H        20.0044503135        5.6554910481        8.1854921524
  H        19.2762873439        7.1204490832        7.3960761451
  C        20.2136640005        5.7325488255        6.0871553865
  H         3.6805479239        7.9976584876        0.2443812942
  H         2.8076268976        7.9933329323        1.6967524134
  C         4.1358688049        9.8274524416        1.5801029405
  S        14.1530369300        0.6890202565       -4.3781235223
  C        13.2748707142       -1.8548831265       -4.6358691366
  H         7.5894778345        9.8237447948       22.4637748208
  H         8.3205398125        8.7704476959       21.2118507433
  H         7.6581808562        8.0131534907       22.5857347015
  H        19.6170490389        5.7000698391        5.2057959735
  H        20.9493820291        6.5013460014        6.0504624699
  H        20.7710735868        4.8197288080        6.2682813249
  H         4.3511717673       10.0663876893        2.6474405126
  H         5.0072093410       10.1464918197        1.0380280710
  H         3.3713112084       10.5419516038        1.2946945298
  C        14.1091369984       -0.1267875814       -5.9277213921
  N        13.7921670396       -1.4074862686       -5.8435518293
  O        12.9508013072       -2.9818141238       -4.2570652897
  S        14.6018319739        0.5365990085       -7.4621061505
  C        13.9406280580       -2.3199839534       -6.9481859808
  H        14.0507769476       -3.3560844774       -6.5247754884
  H        14.8369623005       -2.2095820605       -7.5831341226
  C        12.7270561473       -2.3266834045       -7.8672493915
  H        11.8178296728       -2.3295656849       -7.2534155407
  H        12.7941754305       -3.3150815025       -8.3601708785
  H        12.7318154221       -1.4831027188       -8.5974828592
  H        -1.1250123564       14.7264721512       16.8241764360
  C        -2.2162239674       14.6925229508       16.8445059294
  H        -2.5761052954       15.6962207876       16.7135297181
  C        -2.7576101391       14.2229829052       18.1883934640
  C        -2.6504911948       13.7648312451       15.6902098913
  C        -2.1693689782       12.9511783157       18.8065693118
  H        -2.5968501004       15.1157385741       18.8663668823
  H        -3.8312773764       14.2417167270       18.1064555234
  H        -2.1436581138       12.8104364217       15.5777957606
  H        -3.6901211709       13.4989543901       15.7500416323
  H        -2.5141146838       14.3717787040       14.7726321533
  C        -1.3238934922       13.1053456041       20.0135391135
  H        -1.7437195153       12.3334871052       18.0567758600
  H        -3.0606015617       12.4389913757       19.1114784103
  C        -2.1884591038       13.3954697830       21.2721879759
  H        -0.5922756149       12.2529090450       20.0665105874
  H        -0.6467686390       13.9704458816       19.8820590086
  C        -1.3166144155       13.2242223651       22.5218304521
  H        -3.1623648922       12.8948755190       21.3306181324
  H        -2.5589907618       14.4545043601       21.4027157609
  C        -0.0262212023       13.9972986890       22.5959578303
  H        -1.8610723627       13.3087596841       23.4862359011
  H        -0.9884212678       12.1344938307       22.4621334787
  C         1.1009082113       13.3297996168       23.4155827525
  H         0.3579979955       14.2843056484       21.5699200724
  H        -0.2658092658       14.9253380106       23.1055104081
  C         1.5782514259       12.0558926993       22.7104699541
  C         0.8020914711       12.6015602666       24.6682551869
  C         2.3234346942       14.2779907352       23.5837816932
  C         1.5613334392       10.9574607167       23.5714119462
  C         1.9249224314       11.7046695372       21.4162587416
  C         0.9954718252       11.2445929588       24.8011818377
  C         0.4245465047       13.2257049746       25.8434954934
  H         2.4668571442       14.8243592951       22.6014413696
  H         2.0919200165       15.0400233283       24.3427823412
  C         3.6055414040       13.5841652263       24.0040541413
  S         2.0915404916        9.4469125898       22.8860478461
  C         2.2488922361       10.3489721628       21.3633043235
  H         1.9619357811       12.4337305496       20.6056336021
  C         0.5266480403       10.5802795092       25.8900327043
  H         0.4329615931       14.2818595031       25.8285739269
  C        -0.0124640244       12.5651185850       26.9797590182
  H         3.8266241573       12.9011456461       23.2211366104
  H         3.4301962540       13.0552172167       24.8654603453
  C         4.8036946797       14.4194303733       24.2010272830
  C         2.6701642443        9.5281857263       20.0699625403
  C         0.0270512616       11.2052289398       27.0854704282
  H         0.5568542710        9.4897629119       25.9037668321
  C        -0.4257102115       13.0023961176       28.2247253102
  H         5.6716084296       13.8304175340       24.5607087763
  H         4.5399353276       15.2299778491       24.9906918290
  C         5.3547688919       15.1128756089       22.9306100188
  C         2.7142623991        8.1675351303       19.8788727718
  C         3.0412433003       10.4271532069       18.9151136121
  C        -0.5015585934       10.5672567097       28.3835053721
  C        -0.6533060044       11.9151356563       29.0375199795
  S        -0.6563776256       14.4969025570       28.9481769769
  H         5.9941459461       15.8410130881       23.4190123017
  H         4.5646878202       15.5982935550       22.3733596880
  C         6.1185802506       14.1917599457       21.8889795838
  N         2.3322219396        7.1958107614       20.8032635519
  C         3.1221240094        7.6113959762       18.6741224617
  C         3.4166986246        9.8474268831       17.7030801486
  H         2.9982051399       11.5177045241       19.0244030814
  C         0.5629351697        9.6209163111       29.0346572382
  C        -1.9329055820        9.9816468531       28.2312241508
  C        -0.9960565501       12.2750388948       30.2875515049
  C        -1.1104553086       13.6594102612       30.3628526664
  H         7.1523192815       14.3299883780       21.9160483250
  H         5.9945364281       13.2593106130       22.4367923042
  C         5.4658239194       13.9618971961       20.4489998124
  S         2.6574819772        5.7569545903       20.2258599881
  N         3.0821530236        6.2042294459       18.7663316981
  C         3.4000488458        8.3710395820       17.5369433964
  H         3.6657494654       10.5448604340       16.9125114064
  H         0.9017329260        8.9388155507       28.1834900053
  H         0.0405037952        9.0326796953       29.7807972479
  C         1.7905105758       10.3823508929       29.7111556241
  H        -1.7701815035        9.0652142102       27.7077692226
  H        -2.4294922359        9.6251034873       29.1276513940
  C        -2.9455146308       10.7825826889       27.4229906401
  H        -1.2580554408       11.5295305910       31.0142756108
  C        -1.4274110466       14.3892287420       31.6333926605
  H         5.5383661912       14.9213547842       19.8305716805
  H         4.4988150935       13.6546941238       20.6595695692
  C         6.4075173315       13.0085445447       19.7115321290
  C         3.6667990503        7.7081309556       16.3331878860
  H         2.1645246343       11.1494328070       29.0193494573
  H         1.3986405540       10.7942812891       30.6055056275
  C         2.8719780235        9.3552540294       30.1509587624
  H        -2.5252870421       10.7208511570       26.3668132932
  H        -2.9698228796       11.7876728060       27.6081734969
  C        -4.3747061530       10.2067121858       27.3538292496
  C        -1.4798242358       15.8054108926       31.7780486564
  C        -1.5186256631       13.5993040496       32.9098717724
  H         6.7303108531       12.1480410941       20.2542740243
  H         5.8166942826       12.6266080471       18.8325772868
  C         7.6996848265       13.5413734035       19.0740092530
  H         3.4270676562        6.6567802753       16.2766524988
  C         4.0225525287        8.0848220515       15.0620617357
  H         3.2620265075        8.8913547539       29.2153831450
  H         2.3521552682        8.6783430550       30.8125507975
  C         4.0386034815       10.0738318561       30.8736277428
  H        -4.2345963555        9.1980763091       26.9273455657
  H        -4.7615538884       10.1723847295       28.3730527863
  C        -5.3292695434       11.0636225797       26.5184325557
  N        -1.2039578185       16.7655638908       30.7700262088
  C        -1.7726521528       16.4140438610       32.9911307450
  C        -1.7465347981       14.2148188548       34.1097588481
  H        -1.3491900456       12.5221858632       32.8348161207
  H         7.4365068864       14.4490127467       18.6230367319
  H         8.6003843962       13.7589188659       19.7040153502
  H         8.0542461035       12.9146470668       18.2219320821
  S         4.3076199405        9.6723645807       14.5316463092
  C         4.1767467219        7.0438000481       13.9829313672
  H         4.2036746156       11.0591256562       30.3639370038
  H         3.6068413578       10.3052949716       31.8715819085
  C         5.4492325899        9.2748831579       31.0224775325
  H        -4.8325516866       11.9913467996       26.1578441582
  H        -6.1471611654       11.3469060788       27.1305205834
  C        -5.7624940790       10.3411929698       25.2825301953
  S        -1.6236651774       18.2621198212       31.3975124082
  N        -1.9650552213       17.8476704471       32.9319794820
  C        -2.0282359382       15.6658099288       34.1759251166
  H        -1.6111850077       13.7166882939       35.0563599104
  C         4.6391882176        9.0298208063       12.9075679758
  N         4.5395417478        7.6966249628       12.8400737051
  O         3.9444662776        5.8204858932       14.2205696167
  H         6.1768340863        9.8112295776       31.5548175791
  H         5.8183893441        9.0798969026       29.9903465053
  C         5.0608265531        8.0009790146       31.7957941622
  H        -4.9298284852       10.1818181494       24.6998698008
  H        -6.1358443075        9.3272702343       25.5052420165
  C        -6.8288255558       11.1075973403       24.5321745769
  C        -2.4621637272       16.3357761356       35.3372509015
  S         4.8000016191        9.9450908142       11.3606355448
  C         4.6794507732        6.8428377611       11.6199650680
  H         4.2645065563        8.1495183869       32.4727126558
  H         4.5737351308        7.4907000131       31.0452775137
  C         6.2982505390        7.2412030461       32.3157187335
  H        -6.5336018140       11.3567816918       23.5129364934
  H        -6.9322579099       12.0693738083       24.8895806461
  C        -8.2063613300       10.4460717494       24.5350005908
  H        -2.4245050574       17.3927984019       35.3334480240
  C        -2.9940805611       15.9156353487       36.4784384883
  H         5.3951724935        7.2742246461       10.9541660816
  H         5.1115839471        5.8500765992       11.8077895295
  C         3.4043214464        6.7553390678       10.8096769689
  H         5.9180369419        6.5128771055       33.0372510012
  H         7.0630686631        7.7633484149       32.8811688040
  C         6.9832599524        6.5350274603       31.1848821264
  H        -8.7083418731       10.8927515183       23.7419328305
  H        -8.0066906803        9.4646582900       24.2710308093
  C        -8.9324756293       10.6862625931       25.8566298263
  S        -3.6035762891       14.3297800457       36.7474857194
  C        -3.0592716206       16.8772459289       37.6096162201
  H         3.3852838575        7.6633641791       10.2392509717
  H         3.2234666657        5.9663081021       10.0463138849
  H         2.5435459056        6.7167272790       11.4298778394
  H         6.5647262369        6.6493783809       30.2052327718
  H         6.8762490755        5.4606043171       31.2800955510
  H         8.0712496896        6.6913460745       31.1647775354
  H        -9.2310897201       11.6877495921       25.9132506137
  H        -8.2801410916       10.3844372153       26.6900086248
  H        -9.8142257291       10.0217924797       25.9475878317
  C        -4.0486854157       14.9412434266       38.3124368877
  N        -3.7569488152       16.2213884029       38.5740515055
  O        -2.5770019021       18.0358638212       37.5846110026
  S        -4.9131797830       14.0413251374       39.6152720996
  C        -3.9781646752       16.8748155306       39.8940659414
  H        -3.9857719848       17.9482666702       39.8023133622
  H        -4.8780813744       16.6510725004       40.3976786678
  C        -2.8832353654       16.6241480153       40.9385247196
  H        -2.7097197257       15.5370710870       40.8765848732
  H        -1.9608606979       17.1592634534       40.6228376280
  H        -3.1281657317       16.7526211438       42.0482132856
