352
i=
  H         2.2190613211        2.9459091037       12.8392366368
  C         2.8072451716        2.0824694604       12.4722376044
  H         2.3010335520        1.2376719489       12.9739865424
  C         2.5598687900        1.7456243088       11.0329920610
  C         4.3068075913        2.1230619696       12.8584214736
  C         3.5034504045        2.0292611855        9.9027951233
  H         1.6439222414        2.1911047860       10.6981590953
  H         2.2587065983        0.6388114488       11.0525515855
  H         4.8479609466        1.0876131500       12.9490273749
  H         4.4377983381        2.4633407842       13.8830553749
  H         4.9662993753        2.7100541724       12.2232557219
  C         4.5558295680        0.8323285255        9.7955453726
  H         2.9813837962        2.0929542784        8.9486298378
  H         3.9136258874        3.0012021847        9.9785440657
  C         5.3777161696        0.8941024578        8.5537898710
  H         4.0301848206       -0.1145123745        9.7730682502
  H         5.1601819381        0.6591674665       10.7103886648
  C         6.3462296810        2.1024651943        8.4281999933
  H         4.6834952618        0.9004296183        7.7212113724
  H         5.9242465527       -0.0379987035        8.3988883753
  C         7.6161734056        1.6481782841        9.1217065618
  H         6.6119189632        2.5449362797        7.4155496442
  H         5.9002758082        2.9351321918        8.9470798831
  C         8.7852666907        2.7046175160        9.3530684015
  H         8.0573087797        0.6882852514        8.6734824629
  H         7.3442400213        1.2218705648       10.0959550577
  C         8.3255071439        4.0223858572        9.9538438256
  C         9.1826328594        3.3924074145        8.0691762832
  C         9.9586878386        2.1314128925       10.0179055831
  C         8.5508071173        5.1358963474        9.1882427814
  C         7.7690729594        4.3768861583       11.1940318927
  C         9.1100742258        4.7293568820        7.9453104310
  C         9.7182100181        2.7632220299        6.9350032560
  H         9.6170342987        1.6398649999       10.9037677149
  H        10.2594672111        1.3207985754        9.3290625623
  C        11.1165815618        3.0714080605       10.1929629434
  S         8.2927373310        6.6142743708        9.9394182271
  C         7.7371779134        5.7361707721       11.3482765908
  H         7.6951957534        3.6050902355       11.9817631400
  C         9.5355021313        5.3674168914        6.8397223224
  H         9.7138998447        1.7027244561        6.9295581824
  C        10.1311448832        3.4102584260        5.7959213456
  H        10.7937723689        4.0899893583       10.3369931230
  H        11.5302473725        3.0600624059        9.2309518393
  C        12.0998796921        2.7028809041       11.3093252691
  C         7.4624156515        6.4856567816       12.6167165460
  C        10.1159890154        4.7749675410        5.6911765145
  H         9.4842298871        6.4282611294        6.8652091108
  C        10.7299606176        3.0666841253        4.6130919885
  H        12.8963343969        3.3737016515       11.0839451674
  H        12.4060105439        1.6560778176       11.1474916613
  C        11.4667141967        2.9958424077       12.6653610719
  C         7.4070037652        7.8764690605       12.8403556425
  C         7.0652544063        5.6793495004       13.7473878985
  C        10.6325674153        5.4714856443        4.4447629350
  C        11.0333782091        4.1398841978        3.8047542183
  S        10.9801408634        1.5559210650        3.8157491922
  H        11.8418849413        3.9139714976       13.0710129607
  H        10.3815440044        3.2833390771       12.5234197900
  C        11.6210821293        1.8530403629       13.7120966958
  N         7.7743314908        8.9132764806       11.9474094315
  C         6.9333203070        8.4842284531       13.9747421787
  C         6.5459243163        6.2700449539       14.8999546246
  H         6.9047018056        4.5446304244       13.6798421481
  C        11.9362762323        6.3176431260        4.6194384178
  C         9.5272143091        6.2165810062        3.6930083588
  C        11.5061035093        3.7366972298        2.5982313805
  C        11.5252553402        2.3996935390        2.4282311364
  H        12.5757544815        1.4464299652       13.4785622858
  H        10.8812922657        1.0376148645       13.3921951731
  C        11.4951259454        2.3515233445       15.1631542033
  S         7.6118079996       10.3894340405       12.5965080325
  N         6.9471505339        9.8887061126       13.9661216436
  C         6.6628428824        7.7578124707       15.1214649989
  H         6.0867836645        5.6660599741       15.6441664632
  H        11.7735800311        7.3479044083        5.0093382816
  H        12.3995119270        6.4111098835        3.6176008017
  C        13.0283193003        5.5741828603        5.4896934099
  H         9.0286664807        6.8715951828        4.4190617037
  H         9.9823744676        6.8417273981        2.9216752914
  C         8.5194902454        5.3217830068        2.8593631897
  H        11.7675242868        4.5214433604        1.8961724238
  C        11.7964479784        1.6394685677        1.0913641364
  H        11.6302163193        3.4109797134       15.1394916940
  H        10.5907722843        2.1384165373       15.7250586149
  C        12.6531562277        1.9399073366       16.0821236413
  C         6.4543244250        8.4794048601       16.3587349168
  H        12.7180534191        5.4210716456        6.5270176717
  H        13.1257688480        4.5632012105        5.1187956632
  C        14.3897514482        6.3100281621        5.3670027874
  H         8.3533993696        4.4641868488        3.4421498010
  H         8.9947862467        4.9755759307        1.9607144413
  C         7.1713860613        5.9387426788        2.6679084044
  C        11.8693301396        0.2258997030        0.9401861150
  C        11.9794205450        2.3778548492       -0.2191529931
  H        13.5759795085        2.3624812099       15.7418688652
  H        12.6344974391        0.8934411400       16.1252136125
  C        12.3723456778        2.4347496918       17.5247727296
  H         6.7012136345        9.4898027383       16.3821924903
  C         6.1085033250        8.0812175708       17.6552558667
  H        14.3607002832        7.3133036126        5.6371627411
  H        14.6949563250        6.2912204839        4.3645046259
  C        15.3891735754        5.5321275957        6.2020165596
  H         6.3299122644        5.1734180974        2.6070118857
  H         7.0327480728        6.4040738344        3.6375737924
  C         7.0457130606        6.9023423690        1.4865850209
  N        11.6824883057       -0.6481020643        2.0299692347
  C        11.9909470361       -0.4438850481       -0.3010888518
  C        12.2194835395        1.6636228630       -1.3747600086
  H        11.9728944478        3.4621373299       -0.2433169558
  H        13.1694644684        2.0715916330       18.2059015010
  H        11.3770023969        2.0410427924       17.7834079193
  H        12.3678251489        3.5412057676       17.5753715419
  S         5.9961338151        6.4507983133       18.1251212535
  C         5.9050464720        9.0352683849       18.7718341570
  H        15.4906574263        5.8329677344        7.2220836842
  H        15.0379621344        4.4841744787        6.1838628406
  C        16.7524192489        5.3704941435        5.5337974313
  H         7.4893979503        6.5889932718        0.5832197224
  H         7.4639927432        7.8557405628        1.6727368749
  C         5.6089073952        7.1896034162        1.1362494466
  S        11.5323795796       -2.1274194236        1.3164572990
  N        12.0275915161       -1.7745871908       -0.1658721602
  C        12.2706744467        0.2235864144       -1.4868871076
  H        12.3107684654        2.2990661990       -2.2682921392
  C         5.6383432065        7.0558213657       19.7060074917
  N         5.6422437554        8.4164416697       19.9127348116
  O         5.9259684324       10.2383523638       18.6442046797
  H        16.4461608553        4.9140774421        4.6443035682
  H        17.1362935754        6.3690834607        5.3332243696
  C        17.7501246138        4.5616594724        6.2872396021
  H         5.5882312199        7.7190567304        0.2123074215
  H         5.0143791972        6.3069157678        1.0734716677
  C         4.8334685209        8.0083552046        2.1638882374
  C        12.5675583291       -0.5166811499       -2.6744749366
  S         5.2758388954        6.0301632847       21.0778239214
  C         5.4922690875        9.1216612468       21.1888590301
  H        17.2326309291        3.6874172541        6.7104180822
  H        18.4539331631        4.1237174162        5.5443127821
  C        18.3749236864        5.5022765764        7.3543313114
  H         5.6008878852        8.6138358630        2.7495760986
  H         4.2484363930        7.3960926696        2.7928773389
  C         3.7856762011        8.9110117608        1.5310873213
  H        12.1525013542       -1.5297918909       -2.6401290926
  C        13.2294909376       -0.0875122710       -3.7754668450
  H         4.6816240162        8.7019402221       21.8168961307
  H         5.2865564523       10.1604454261       21.0870513533
  C         6.7976240531        9.1633844230       22.0258255905
  H        18.5132737281        4.8970617415        8.2428754395
  H        17.6690509082        6.2896649181        7.6308614863
  C        19.7614113974        6.2056820515        7.1344325025
  H         4.1499744132        9.2115092931        0.5108879225
  H         2.8520512818        8.3733946526        1.4813237068
  C         3.5602300548       10.1287689089        2.3862634060
  S        13.8517203153        1.4898880670       -4.1897688806
  C        13.2882971879       -1.0340884432       -4.8922115443
  H         7.6386408194        9.0585775016       21.3155353776
  H         6.9760013975        8.3272181140       22.8186047781
  H         6.9639325298       10.1562984793       22.4041570089
  H        19.8868237789        6.5013219349        6.0875860555
  H        19.9708246584        7.0457944825        7.7654177273
  H        20.4936207022        5.3427483272        7.0874801654
  H         3.6558224447        9.6445809299        3.4007901016
  H         4.3166531322       10.9313336578        2.3054531201
  H         2.5882206956       10.5292381380        2.3128782242
  C        14.3375454650        0.8185012939       -5.7638495458
  N        14.0025330682       -0.4857693847       -5.9824920775
  O        12.6678719957       -2.1545325953       -4.8752688293
  S        15.0411817237        1.7624896060       -7.0931317762
  C        13.9850696078       -1.3175046395       -7.1508358059
  H        14.2032127029       -2.3623000769       -6.8047044415
  H        14.8551565204       -1.0257247732       -7.7957094075
  C        12.7629144265       -1.1858156469       -7.9485043751
  H        11.9000001976       -1.5178956316       -7.5002351294
  H        12.9396505968       -1.7444561865       -8.9020478940
  H        12.6950276190       -0.1712026441       -8.2413347476
  H        -1.8669509158       12.5184194046       17.2684260881
  C        -2.4383314010       13.3880028071       17.0388717952
  H        -1.6717777928       14.0577631898       16.5376217065
  C        -3.1610357590       14.1501522897       18.2187715684
  C        -3.4371618952       12.9902630938       15.8999094582
  C        -3.8221131837       13.3446890520       19.2586057505
  H        -2.5413980755       14.9285286140       18.6206205053
  H        -3.9808034150       14.7640181760       17.8667022531
  H        -2.9318543192       12.7197326570       14.9741621031
  H        -4.0705058340       12.1668766712       16.1226269665
  H        -4.0492227148       13.8309774068       15.6608329363
  C        -2.7777546795       12.6092450705       20.1910612019
  H        -4.5080961805       12.6216488232       18.8100252611
  H        -4.3810960325       14.0316199495       19.9135521074
  C        -2.9403435657       12.8350187698       21.6931527876
  H        -2.7894517315       11.5314501902       19.9518984936
  H        -1.8487347204       12.9849243965       19.9190350578
  C        -1.7876151321       12.2149853923       22.4152414234
  H        -3.9384819322       12.3613710713       22.0292147476
  H        -2.9631107795       13.9370792514       21.8850556527
  C        -0.6430144611       13.2708866115       22.6918784710
  H        -2.1917203804       11.8267625170       23.3282112855
  H        -1.4806116289       11.4169033624       21.8328215464
  C         0.5772058838       12.6259054997       23.4011396361
  H        -0.3042344472       13.8132384365       21.8042176545
  H        -1.0810533716       14.0316277096       23.3854395394
  C         0.9043408742       11.3342123009       22.7560384099
  C         0.0664958325       11.9786036044       24.6615555316
  C         1.7677759761       13.5328642583       23.5296045960
  C         0.6675241548       10.2765604444       23.6093002960
  C         1.4953847904       10.9301393399       21.5187729557
  C         0.2036601739       10.6663280156       24.8532416080
  C        -0.2557246886       12.6336799966       25.8539149385
  H         1.9506188957       13.9690349203       22.5590572398
  H         1.3889637440       14.3719416899       24.1478307698
  C         3.0107985295       12.9000267490       24.1922451081
  S         1.0075100779        8.7119538024       22.8394025768
  C         1.5794508406        9.5493579490       21.4069124586
  H         1.6456069655       11.6649224423       20.7524587744
  C        -0.1630158984       10.0758221946       26.0279164710
  H        -0.2048240596       13.7011464076       25.7415785186
  C        -0.6413956089       12.0160003539       26.9940393473
  H         3.3234398738       11.9560222740       23.7579454117
  H         2.7544445511       12.7530409381       25.2529450086
  C         4.2396429950       13.8080120201       24.1991764680
  C         1.9287125392        8.8666814485       20.1235398405
  C        -0.6806892201       10.6449400605       27.1397901378
  H        -0.0582361133        8.9852240405       25.9754361868
  C        -0.9749081257       12.4975276801       28.2245867905
  H         4.9650734151       13.2425619586       24.8282916220
  H         4.0352377077       14.6253364138       24.8520277168
  C         4.9011789043       14.1897105350       22.8826958554
  C         1.9168357112        7.4270336619       19.9664514903
  C         2.3841205409        9.6868365297       18.9545413137
  C        -1.0260992537       10.0952943516       28.4774741488
  C        -1.2853040611       11.4965841480       29.0762144764
  S        -1.0533129428       14.0386498331       28.8970074177
  H         5.7409806826       14.8927310632       22.8905252835
  H         4.1382244596       14.7087015395       22.2927163988
  C         5.4378712938       13.0163259392       22.0692603658
  N         1.7293236279        6.4416850595       20.9593166574
  C         2.3039643855        6.8000973590       18.7954002743
  C         2.7226008734        9.0544399102       17.7806793356
  H         2.5739230873       10.6961578060       19.2285329088
  C         0.1978820653        9.3118457744       29.0380348002
  C        -2.3835806889        9.2857979090       28.6006608602
  C        -1.6143218760       11.9838045910       30.3316402975
  C        -1.4399595303       13.3579987011       30.4242258525
  H         6.2999681932       12.6828310097       22.5887159054
  H         4.7240907040       12.1867678341       21.9904786941
  C         5.8950952187       13.5075811310       20.6456651090
  S         1.7166677528        5.0039679368       20.2513801128
  N         2.1368749715        5.4549016685       18.7700388792
  C         2.6141991327        7.5487817213       17.6074237157
  H         3.0397698801        9.6105053267       16.8922653585
  H         0.3155993548        8.3871279563       28.4320424051
  H        -0.0514136578        9.0869018082       30.0439637812
  C         1.5591654392        9.9830817667       28.9856301574
  H        -2.2712911001        8.3828340531       28.0205725133
  H        -2.5687783764        9.0816616884       29.6413222014
  C        -3.6882860585       10.0117766498       28.1310992831
  H        -1.9181232338       11.2915180513       31.1375703674
  C        -1.7835344358       14.2266307148       31.6824767252
  H         6.0973296992       14.6191404496       20.6955516822
  H         5.0691889591       13.4001374278       19.9217345538
  C         7.1372885896       12.8848084540       20.0263002178
  C         2.8616262766        6.8236407675       16.3675833121
  H         1.9339662231       10.1158584241       27.9501696210
  H         1.5490664610       10.9473589368       29.4850576722
  C         2.6177864073        9.2897206389       29.7995562623
  H        -3.5064612007       10.3962557490       27.1046703570
  H        -3.9166456342       10.9214052143       28.7206525101
  C        -4.8214202335        9.0863259504       27.9724137131
  C        -1.7955897808       15.6318055236       31.7753340452
  C        -2.0503130035       13.5204772747       32.9510360472
  H         8.0316464044       13.2309242507       20.6082822354
  H         7.1063579950       11.7714496414       20.0507582871
  C         7.2017576196       13.2784963272       18.5366475029
  H         2.6762221565        5.7947994515       16.4349716102
  C         3.1767068226        7.2725894757       15.0762828203
  H         3.2078669856        8.5271230868       29.1879800450
  H         2.1628339060        8.6838712878       30.6424207075
  C         3.6420289471       10.2315169169       30.4358817461
  H        -4.5205796753        8.2544408186       27.4562780095
  H        -5.1459904388        8.6829801632       28.9043434804
  C        -6.0860995252        9.6553221281       27.3129314384
  N        -1.5866436930       16.5039983816       30.7452109655
  C        -2.0530804080       16.2799254025       32.9949647835
  C        -2.3268151606       14.1706166407       34.1557343228
  H        -2.0906221644       12.4614558199       32.9947278080
  H         7.1292223607       14.3111334190       18.3611477146
  H         8.1938022053       12.9571102458       18.2076447459
  H         6.4336920378       12.8126316202       17.8079758224
  S         3.4971684008        8.8601239320       14.4912875076
  C         3.3078346531        6.1853246242       14.0360437950
  H         3.6707020894       11.0454670885       29.7619719919
  H         3.2315815612       10.6275161518       31.3960001685
  C         5.0133706984        9.7072583198       30.5318807367
  H        -6.3228900348       10.5877989935       27.8261057834
  H        -6.9575205211        9.0125759125       27.4515891311
  C        -5.7965295551        9.9356418604       25.8368088180
  S        -1.6216565289       18.0335829373       31.3838669906
  N        -2.0320131046       17.6837801573       32.9135383681
  C        -2.3537437665       15.5925462465       34.2221322316
  H        -2.4837823464       13.5166316758       35.0167463512
  C         3.6798170648        8.0956834704       12.9160587132
  N         3.7332233312        6.7477443260       12.9052875904
  O         3.0945494909        5.0210961535       14.3000820504
  H         5.6797578483       10.3934318699       31.0453475258
  H         5.3416882000        9.6843258179       29.4673896675
  C         5.2954323907        8.3169389600       31.1068879275
  H        -4.8180368840       10.2462308531       25.5136905847
  H        -6.0761513012        9.0297532683       25.3251818982
  C        -6.7344248484       11.1169824887       25.2630588062
  C        -2.6417099407       16.3660567928       35.3812540473
  S         4.1415540430        8.9317834766       11.4425061677
  C         3.8257239142        5.9208570330       11.6811128894
  H         5.6937237215        8.2957511220       32.1444535709
  H         4.3618981309        7.7361238162       31.0328218953
  C         6.2179943093        7.4929598045       30.1213532544
  H        -6.4746200817       11.2749444299       24.1772085631
  H        -6.6485756927       12.1513679657       25.7274417692
  C        -8.2732054351       10.6883573871       25.2022831940
  H        -2.3263286179       17.3760626983       35.4091088349
  C        -3.1984854385       16.0518719856       36.5855835332
  H         4.4297075851        6.3161903971       10.9262947821
  H         4.1368921426        4.9126852101       11.9193259378
  C         2.4479121617        5.8555014537       11.1413315444
  H         7.0532056025        8.1365349819       29.7162314547
  H         5.5431905281        7.3487706515       29.2716620981
  C         6.5528671032        6.1404000334       30.7106358275
  H        -8.8009966357       10.8849671186       24.2341020913
  H        -8.4200913567        9.6222740200       25.3210175225
  C        -9.0114477845       11.1580589506       26.4811304012
  S        -3.6767933907       14.5327757674       37.2823427434
  C        -3.3280305908       17.2406227474       37.4801570059
  H         1.9208887091        5.0221923540       11.4977581885
  H         1.8285113175        6.6678326480       11.3524505526
  H         2.5542000305        5.6299385406       10.1269222596
  H         7.3607044086        5.6090292281       30.1112169112
  H         5.6396347125        5.4971112363       30.6673514373
  H         6.7484774473        6.1585153891       31.7761939158
  H        -9.2086642350       12.2266342968       26.5407583384
  H        -8.3387377427       10.9834718862       27.3372564400
  H        -9.8377498833       10.5701880041       26.8033095295
  C        -4.0534002669       15.4456827760       38.7014830202
  N        -3.8990132914       16.7621597140       38.6140210708
  O        -3.1484042233       18.4349264845       37.2366580213
  S        -4.8211398562       14.7004185596       40.1823723614
  C        -4.0191431658       17.6868565345       39.7975167238
  H        -4.1546153892       18.7384001133       39.5269595778
  H        -5.0004344277       17.3686645246       40.0976350806
  C        -2.9785210437       17.3994985283       40.8805681284
  H        -2.8462473279       18.2764042394       41.5790326692
  H        -3.3825105752       16.6975285475       41.5921065086
  H        -2.0031075095       17.0956456431       40.4314556626
