352
i=
  H         4.0698931411        1.5712608014       12.8492857542
  C         3.5958859077        2.4916920027       12.9688481716
  H         4.4035106618        3.2045450417       13.1498173242
  C         2.8584385919        2.7285196689       11.6727591996
  C         2.7040419703        2.3132190605       14.1744348453
  C         3.8730309304        2.8056680596       10.5194233863
  H         2.2891026273        3.6768319345       11.8124894381
  H         2.1755754162        1.9556035943       11.5018023249
  H         2.0838302286        1.4017902268       14.0145421958
  H         2.0337424079        3.2079524087       14.2897033946
  H         3.2487686038        2.2531661264       15.0718115790
  C         4.4142191374        1.5191790234        9.9497475248
  H         3.4405245907        3.3600072999        9.6889104655
  H         4.7916917935        3.3499050076       10.8138564244
  C         5.2328034312        1.6102030427        8.6092759091
  H         3.5735106428        0.8602217388        9.7110036904
  H         5.0795596813        1.0661442968       10.6204017307
  C         6.5552894577        2.4715216479        8.7872567386
  H         4.6065982175        1.9049196620        7.7741258672
  H         5.4784975972        0.5547163626        8.4090024471
  C         7.7651949681        1.7723601223        9.3554057361
  H         6.8524408778        2.8446442937        7.7864605490
  H         6.3679362786        3.3531127118        9.4558611546
  C         9.0135658740        2.6865553956        9.4243049154
  H         7.9325699160        0.8506918674        8.8453334445
  H         7.5985097810        1.3658679195       10.4407249253
  C         8.6071721300        3.9801498982       10.1025158703
  C         9.3857976944        3.4283707142        8.1506154949
  C        10.1053356386        1.9944147456       10.2150146473
  C         8.8191416993        5.0933870835        9.3618863685
  C         8.0975015871        4.3833703279       11.3444988388
  C         9.2705104003        4.7615933737        8.0928445135
  C         9.8160958540        2.8867187487        6.9041865992
  H         9.7119159573        1.7271913280       11.1124873841
  H        10.3102945513        1.0567741846        9.5836827279
  C        11.4246381660        2.8653680551       10.2998117115
  S         8.2554037189        6.5601499307        9.9958481953
  C         7.9251643627        5.7293660777       11.4455664955
  H         8.0035909920        3.6552201562       12.1090724268
  C         9.6250632192        5.5525472073        6.9789977351
  H        10.0846766640        1.8230928377        6.8620772617
  C        10.1470850376        3.6194769463        5.7975537136
  H        11.1404151558        3.9050121740       10.4602843251
  H        11.7712948521        2.9449231173        9.3055482157
  C        12.4313354388        2.3359099342       11.4053125777
  C         7.5211067572        6.3542588044       12.7051401716
  C        10.0279251761        4.9490471491        5.7605354818
  H         9.4980144501        6.6087788129        6.9544321461
  C        10.6586535393        3.2070858563        4.5840244258
  H        13.3816537288        2.8638354656       11.3248406273
  H        12.7332230747        1.3602199178       11.2812704220
  C        12.0042193930        2.4937837394       12.8706458280
  C         7.4870091432        7.7435578072       12.9750845742
  C         7.1587698305        5.5165052713       13.8527789303
  C        10.4184320753        5.6457654762        4.4024193439
  C        10.7785772528        4.3183087716        3.7878827860
  S        10.8732425036        1.7078570727        3.7594828758
  H        12.6446675590        3.2324765845       13.2907150950
  H        10.9901453733        2.9602560675       12.8755941921
  C        12.0027998134        1.2522657583       13.8069453339
  N         7.8132846181        8.7950368156       12.0775290641
  C         7.2347088825        8.2461133044       14.2081441575
  C         6.8840017947        6.0108893268       15.0939957577
  H         7.0009280448        4.4635401411       13.7663645991
  C        11.7097296150        6.5028380018        4.3750510289
  C         9.2886665880        6.2805349039        3.5164309280
  C        11.3402992230        3.8954134812        2.5660010285
  C        11.4318765264        2.5229092092        2.4461248050
  H        12.9385861169        0.6931205926       13.6328042357
  H        11.3053121422        0.4534658721       13.4286107241
  C        11.8531305400        1.7195520065       15.3039705124
  S         7.8278206467       10.2472462304       12.8592040324
  N         7.3660955435        9.6347129888       14.3240104562
  C         6.8907578186        7.4373319321       15.3423605705
  H         6.7567410088        5.3222339212       15.8733948272
  H        11.5038954326        7.4971759599        4.8659922984
  H        12.0821926121        6.7577651296        3.4286146489
  C        12.8621246283        5.8035644991        5.1122309165
  H         8.9252751284        7.0953882532        4.0685850859
  H         9.7765117141        6.6601429992        2.6277344099
  C         8.1360382948        5.3474522971        3.2222290822
  H        11.4424004618        4.6578150742        1.7481356376
  C        11.8448931738        1.7859532567        1.1954073462
  H        11.4861790062        2.7724365285       15.3014518469
  H        11.0198504298        1.0872415699       15.6848798161
  C        13.1043256689        1.7082262346       16.1056131585
  C         6.6123959269        8.0296666547       16.5940352830
  H        12.3641608555        5.3777533657        6.0273365720
  H        13.2805565373        5.0612991448        4.4487605357
  C        13.9746048926        6.7624456604        5.5021908366
  H         7.7089222436        5.0696615848        4.1462573307
  H         8.4266397720        4.4401532993        2.7210111501
  C         7.1286051475        6.0970962701        2.3672038945
  C        11.7710022075        0.3550344931        1.0040085137
  C        12.0316295224        2.6238463174       -0.0650575353
  H        13.9594993552        2.2708755707       15.6043150340
  H        13.4453745064        0.6725638772       16.1234279662
  C        12.8824295878        2.2394166003       17.4943522678
  H         6.7605111521        9.0854677053       16.6625396326
  C         6.1142871973        7.5326929025       17.7964951140
  H        13.8332773454        7.2016984044        6.4905844683
  H        14.1243044937        7.5213801156        4.7709495564
  C        15.3212933302        6.0194329763        5.4974674881
  H         7.3782519282        7.1772894098        2.3628413737
  H         7.2472181572        5.8101516934        1.3697569601
  C         5.6321351099        5.8983536469        2.6731242312
  N        11.4339013789       -0.5583036724        1.9891912466
  C        12.0152944809       -0.1838417042       -0.2298953989
  C        12.2624474044        2.0364350864       -1.3085806685
  H        11.9763285649        3.6404061334       -0.0188708363
  H        12.6058032456        3.2626963182       17.4654169389
  H        13.6545835998        2.1497415347       18.2538916424
  H        12.0244406752        1.6700501806       17.9137993423
  S         5.9547946253        5.8219679302       18.1912574723
  C         5.9616101546        8.5117443700       18.8393793030
  H        15.3720352988        5.2323533517        4.6632504431
  H        16.0371092926        6.7397423060        5.2505657583
  C        15.6082361552        5.5215036539        6.9033162088
  H         5.4196365991        6.2627398403        3.6759675174
  H         5.4543038108        4.8050368232        2.7583937700
  C         4.7489322584        6.3905834281        1.5369703340
  S        11.3349193853       -2.0283444695        1.2775976207
  N        11.8601134451       -1.5756151382       -0.2050342203
  C        12.3814689200        0.5635539999       -1.3969194846
  H        12.4038947534        2.7254313545       -2.1323952891
  C         5.7369621751        6.4459019716       19.8513302069
  N         5.6405108129        7.7728058735       19.9387492635
  O         5.9564844156        9.7537769754       18.7558708668
  H        15.8092078873        6.3935630287        7.5899480251
  H        14.8639033972        4.8453935788        7.3024881366
  C        16.8954322541        4.7134626428        6.9140203649
  H         5.3418145670        6.5190358371        0.6228258606
  H         4.0716483019        5.5690186205        1.3086770055
  C         4.0446151533        7.6650040737        1.9034994745
  C        12.6280368240       -0.1577977193       -2.6038923011
  S         5.2417307171        5.4915165481       21.2075637372
  C         5.4871872990        8.5461245269       21.1847750957
  H        17.0424933497        4.2329823291        7.8831669895
  H        16.6823120962        3.9221214747        6.1743804100
  C        18.1121434011        5.5986666888        6.6985908407
  H         3.8704007973        7.7133232256        2.9752162784
  H         3.0631466110        7.5502713775        1.4423508204
  C         4.7740972023        8.9096303953        1.4601491723
  H        12.3178502050       -1.1897690561       -2.5199512306
  C        13.0539207239        0.1422227518       -3.8757139092
  H         4.7267906298        7.9759645992       21.8053648873
  H         4.8621093010        9.4523421832       21.0002008507
  C         6.8866587740        8.7992155028       21.8508186513
  H        18.6054444895        5.7988711772        7.6666910160
  H        17.9392124164        6.6457988631        6.3474038512
  C        19.1483879429        4.8542408871        5.8601524060
  H         5.1617736010        9.5275275811        2.2509776334
  H         5.6005905373        8.5593750799        0.8098574749
  C         3.9175594185        9.9391621910        0.6707717547
  S        13.6362016887        1.7427356875       -4.3659679881
  C        13.2551582705       -0.9571282249       -4.8916812305
  H         7.4179395665        7.8195752227       22.0470336583
  H         6.8678967107        9.3604748201       22.8610574388
  H         7.4771322100        9.4106321972       21.1523167253
  H        18.8929155729        4.7583957344        4.8479630375
  H        20.1912852228        5.3067197032        5.8758289632
  H        19.2307339242        3.7730718036        6.2217496248
  H         4.5263606710       10.7685998404        0.2432263376
  H         3.1447489858        9.5053046201        0.0020257188
  H         3.3325415624       10.4495451697        1.4502505409
  C        14.0411264571        0.9368234029       -5.9179580054
  N        13.8653009764       -0.3892370925       -5.9162609459
  O        13.1900338404       -2.1816918353       -4.6624774532
  S        14.8926933587        1.7563186575       -7.2581451243
  C        14.1520073277       -1.1378231995       -7.1472468525
  H        14.1378560983       -2.2260277727       -6.8595193126
  H        15.1736498648       -0.8783028378       -7.5498330069
  C        13.1197143706       -1.1249363574       -8.2449843976
  H        13.3832584965       -0.3466617852       -9.0599206941
  H        12.0957418530       -1.0171059778       -7.8211155006
  H        13.2114446516       -2.1049661449       -8.7593873415
  H        -3.0334645002       14.5187161572       16.0617529306
  C        -3.3093429029       13.5210758807       16.2867803921
  H        -4.3583457798       13.4446476568       16.5986354402
  C        -2.3735374894       13.0095235204       17.3829516746
  C        -3.1841691039       12.6536780743       15.0315264226
  C        -2.8545363902       13.4728445806       18.7916929064
  H        -2.3726861460       11.9129368219       17.2450508796
  H        -1.4521929736       13.4957675953       17.1616290770
  H        -3.3746001153       13.3162203299       14.1879694723
  H        -2.2824237425       12.0677598651       15.0014571744
  H        -3.9836590837       11.9294584493       15.0725881489
  C        -1.9469709316       12.9058526363       19.9554726810
  H        -3.8024190071       13.0251219958       18.9977650582
  H        -2.8640528511       14.5393545148       18.8693459002
  C        -2.5235697424       13.0208359314       21.3821218291
  H        -1.7380367145       11.8007224401       19.6827371127
  H        -1.0128205496       13.4047701422       19.8251459976
  C        -1.5650374571       12.7319170225       22.4799747186
  H        -3.2705243970       12.3053927899       21.4950046634
  H        -2.9185006028       14.0510156059       21.4492640883
  C        -0.3392366710       13.6315789268       22.6273674001
  H        -2.1577501857       12.7875128148       23.3703725359
  H        -1.2884258864       11.6809503574       22.3060942351
  C         0.8793465153       12.9287503948       23.2579370401
  H         0.0536604514       13.9723555224       21.6816771104
  H        -0.6908816638       14.4351239346       23.2805770153
  C         1.1981726667       11.5676653947       22.5454116039
  C         0.4503070892       12.1651051866       24.5252994442
  C         2.1188792863       13.8835408721       23.4568824168
  C         0.8910692521       10.4482130851       23.3454986123
  C         1.6198964382       11.2632626638       21.2698565078
  C         0.4862436169       10.8153321984       24.5991201874
  C        -0.0165766498       12.7371518590       25.7412981239
  H         2.0175217901       14.6866597223       22.7988323258
  H         1.9919043562       14.3927339430       24.3924215459
  C         3.4655117672       13.1047686526       23.5756524945
  S         1.1075695498        8.9986804899       22.5165583822
  C         1.5933842846        9.8871222889       21.1109645414
  H         1.8362570273       12.1376582730       20.6342670572
  C         0.1094984534       10.1152493971       25.7008257337
  H        -0.0578730487       13.8893071869       25.7019870323
  C        -0.3650476829       12.0532963131       26.8525085472
  H         3.6362382771       12.4915949544       22.7655378978
  H         3.5189064364       12.5069999770       24.4114490081
  C         4.7092351958       14.0502296207       23.6954977113
  C         2.0210446432        9.1595329044       19.8634095678
  C        -0.3373138461       10.6709172923       26.9095167194
  H         0.1957533720        9.0653732645       25.5823117182
  C        -0.8476810183       12.4060762616       28.0520793256
  H         5.5809192941       13.6136321095       24.2638274156
  H         4.4441903292       15.0080940410       24.2579981533
  C         5.1974743995       14.4648784012       22.3461501838
  C         2.0531666748        7.7832965275       19.6332293397
  C         2.5350456022        9.9971052456       18.7728126480
  C        -0.8064358077        9.9263664979       28.0758757386
  C        -1.0849757432       11.2989628852       28.8081060044
  S        -1.1790937802       13.8869946343       28.8838259762
  H         5.8783408182       15.2723986370       22.5715758939
  H         4.3728186458       15.0084118131       21.8596024158
  C         5.9201009106       13.4610138435       21.4451255158
  N         1.5945810542        6.7918395666       20.5410188004
  C         2.4288718406        7.2192857293       18.4355572229
  C         2.9633810123        9.4299653532       17.5569636579
  H         2.6143747606       11.0394965656       18.9309101615
  C         0.3063805882        8.9723118626       28.7560551657
  C        -2.1647425904        9.1883008818       27.8082960312
  C        -1.4166010438       11.5830200088       30.1344399565
  C        -1.6777124054       12.8957951171       30.2641265299
  H         6.8762342529       13.9279222426       21.1770574106
  H         6.1221721326       12.6989267111       22.1159247306
  C         5.1068316190       12.9899128350       20.2588123684
  S         2.0620903136        5.3654378807       19.9529972621
  N         2.3730570959        5.8157010371       18.4419720716
  C         2.8274858251        7.9516254829       17.3065499520
  H         3.3684896382       10.1658069058       16.8192661168
  H         0.6365171473        8.1302583330       28.1806288689
  H        -0.1684683962        8.4170705938       29.5822728865
  C         1.5449393513        9.7928695660       29.2950155687
  H        -1.9423920611        8.4204781866       27.1435786073
  H        -2.5511558222        8.9445892315       28.7798731451
  C        -3.2822917671       10.1050907877       27.2071065110
  H        -1.5948665179       10.7180027093       30.7165579827
  C        -2.1128672126       13.5485634955       31.5494121244
  H         4.3093475118       13.6088976030       20.0226790561
  H         4.5838582155       11.9805604010       20.5232960096
  C         5.9973197052       12.8809491640       18.9706362242
  C         3.1632820931        7.2605207443       16.0515920830
  H         1.8410778708       10.4391719485       28.4737206106
  H         1.2242166401       10.4573741603       30.0846388985
  C         2.7288071397        8.9397276970       29.8084534240
  H        -3.0863523207       10.4121852059       26.1943484698
  H        -3.4142803345       11.0736646829       27.7679116305
  C        -4.6760540383        9.4096454419       27.2903784961
  C        -2.0380582852       14.9305093677       31.8689835799
  C        -2.4430600753       12.6290083912       32.7329328327
  H         5.4421028516       12.2678900800       18.2495220719
  H         6.0028633750       13.8683171022       18.5089941653
  C         7.3681846804       12.2464124251       19.0146363967
  H         3.1063796425        6.2255258588       16.0944104781
  C         3.4759693149        7.6770145079       14.7810375467
  H         3.1023729662        8.2364705395       29.0834292317
  H         2.4370191570        8.3645250590       30.6572916045
  C         3.8710722854        9.8930719052       30.2776463852
  H        -4.7744982429        8.6436432951       26.5321065405
  H        -4.9195910196        8.9017673086       28.2300524246
  C        -5.7752582367       10.4334520814       27.2170000977
  N        -1.6668159713       15.9259133993       30.9260882848
  C        -2.2362735854       15.5066414755       33.1375329746
  C        -2.5830125850       13.2386640013       33.9794008674
  H        -2.5056224617       11.5660942372       32.6137143660
  H         7.4406098379       11.4502258011       19.7644719410
  H         7.6831229787       11.7843141559       18.1085918896
  H         8.1220135614       13.0082590504       19.3124266162
  S         3.7417275227        9.3013885803       14.2432853307
  C         3.4165393127        6.6884122267       13.6055476704
  H         4.0370874601       10.6976938383       29.5915232849
  H         3.5932008861       10.4143874944       31.2675917245
  C         5.2439629978        9.2892785029       30.4642718362
  H        -5.4750878304       11.1450264459       26.5150438084
  H        -5.8862177854       11.0038232291       28.1317311136
  C        -7.1638651255        9.8897712378       26.7735485580
  S        -1.6711785576       17.3672568494       31.6446591147
  N        -2.1645040034       16.9253481869       33.1133715765
  C        -2.5573737903       14.7155240101       34.2641258287
  H        -2.8364586337       12.6201672377       34.8097185991
  C         4.1171620766        8.6029440126       12.6196919641
  N         3.7917531834        7.2995922919       12.4760504863
  O         3.0741851682        5.5125522982       13.7570628325
  H         5.7881730649        9.9984575105       30.9466901256
  H         5.7106454713        8.9285365897       29.5320634829
  C         5.0258568353        8.0564373032       31.4027986575
  H        -7.1918220803        8.8601222103       26.8316253370
  H        -7.9065050904       10.3618142961       27.4093732962
  C        -7.4368967274       10.3324181614       25.3699735437
  C        -2.7624855753       15.3947501538       35.4851323001
  S         4.5602342146        9.5695907113       11.2113674558
  C         3.8017180541        6.5544455241       11.2498616212
  H         5.8919626814        8.1125034535       32.0972772473
  H         4.1422695165        8.0305802291       31.9934937645
  C         5.2723914750        6.6819301515       30.7025158342
  H        -6.5098787983        9.9963053087       24.8014793815
  H        -7.4696699603       11.3912968025       25.2315536697
  C        -8.6283516271        9.6421497539       24.7530358636
  H        -2.3690402434       16.4089583939       35.4863180344
  C        -3.3540927412       14.9636271711       36.6399126737
  H         4.4467048617        7.0329450616       10.4716180879
  H         4.1277413818        5.5594901950       11.4448848253
  C         2.3737547607        6.5722935058       10.6050432699
  H         5.1126275930        6.9452252674       29.6089789664
  H         4.4255922814        6.0839388335       30.9812001215
  C         6.6918321334        6.1440817973       31.1179669446
  H        -9.0825401856       10.2745738489       24.0119619000
  H        -8.2183609513        8.7658559609       24.3350691030
  C        -9.6912719233        9.1717230547       25.7286024882
  S        -4.1459373469       13.4695126648       36.8519665509
  C        -3.2860351710       15.8166130790       37.8271950663
  H         2.3629968805        6.4221556911        9.5514912132
  H         1.6504179571        5.8736793619       11.0615638592
  H         2.0173513606        7.5676211647       10.6083900207
  H         7.4678686362        6.9358354260       30.9158049389
  H         6.9154392007        5.2375889522       30.5493588823
  H         6.7359642492        5.9863397993       32.1677962967
  H       -10.5685818498        8.9351730867       25.1182528340
  H       -10.0394079367       10.1119667908       26.2464459562
  H        -9.4840759509        8.4632171596       26.4835210232
  C        -4.4905188710       14.0200807572       38.5117682838
  N        -4.0402814806       15.2788077765       38.8048546807
  O        -2.8842609056       16.9701415002       37.7593244995
  S        -5.5123447025       13.1473722137       39.6791295058
  C        -4.3574140159       16.0378248346       40.0535474799
  H        -4.0987528566       17.0627655715       39.9476916227
  H        -5.4189830440       16.1449708208       40.3378703489
  C        -3.5921357427       15.4327759938       41.1916770874
  H        -3.9924056108       14.4534746202       41.3840269602
  H        -2.6132934112       15.4081920799       40.8067554072
  H        -3.6218170527       16.0384507390       42.0800219577
