352
i=
  H         4.6723096558        3.2724788599       12.8715370546
  C         3.7033314224        2.9854943505       13.1014837135
  H         3.3283290294        3.6121522946       13.9979927379
  C         2.7597491234        3.0891549467       11.9070289798
  C         3.5378397186        1.5731750365       13.6019869337
  C         3.6375133115        3.2715121509       10.5865371095
  H         2.0483008202        3.9614253927       11.9883862044
  H         2.1543750906        2.2178275374       11.7437792122
  H         3.3920661883        0.8187503056       12.8907973195
  H         2.7206436456        1.5046812313       14.3341191862
  H         4.5395820941        1.2997320401       14.0568608892
  C         4.6932324853        2.1773271618       10.3077221807
  H         2.9504538037        3.4227914571        9.7415988005
  H         4.1537256123        4.2183258844       10.6273588470
  C         5.0205651729        1.9913279769        8.8220320998
  H         4.2500919429        1.2524790766       10.6473451620
  H         5.5857788891        2.3447922001       10.9227086916
  C         6.3560674235        2.6241204978        8.5797257045
  H         4.2316143829        2.5547208942        8.3058423827
  H         4.8818453131        0.9931628734        8.4476371606
  C         7.5291261894        1.7291362946        9.0109134152
  H         6.4271273464        2.9424200006        7.5450319862
  H         6.2732564368        3.6129097056        9.0477721207
  C         8.8183973290        2.6239257997        9.3075268394
  H         7.8051520164        1.0363577378        8.2149183761
  H         7.3453894254        1.1304466538        9.8876958709
  C         8.3992919652        3.9518894783        9.9882308506
  C         9.2173478677        3.4678148395        8.1137866476
  C        10.0344886235        1.9190936917        9.9905433880
  C         8.7032374527        5.1032734246        9.2970911318
  C         7.8649916853        4.2868451796       11.2422868383
  C         9.1480693393        4.8026061713        8.0376600122
  C         9.7377230435        2.8875872923        6.9159870250
  H         9.5993684494        1.4605960066       10.8916365045
  H        10.2817279503        0.9845750643        9.4913822876
  C        11.2272729818        2.8033960540       10.3037556276
  S         8.4555492633        6.6066705500       10.1005314243
  C         7.7635865095        5.6830025990       11.4634076750
  H         7.7044890912        3.4660900116       11.9062925336
  C         9.4692121669        5.5127809361        6.8670138688
  H         9.9029141352        1.8270560540        7.0085477207
  C        10.1017789510        3.5241354468        5.7935193594
  H        11.0539601904        3.8416745608       10.6899386582
  H        11.7486370579        2.9728719335        9.3864387581
  C        12.1885676795        2.1393224391       11.3081865392
  C         7.3720396896        6.4285657226       12.6992825954
  C         9.9269083625        4.8671399058        5.6947638473
  H         9.2561213786        6.5546607690        6.7086083482
  C        10.5226225988        3.1522653037        4.5551999091
  H        13.1731137490        2.6554189833       11.2251205341
  H        12.4357217139        1.1157318114       11.0794680158
  C        11.6290677906        2.1213764062       12.6853624224
  C         7.5065070154        7.7971842872       12.9859782603
  C         6.9014133676        5.5786570275       13.8620558951
  C        10.2565788118        5.5521688900        4.3787882353
  C        10.5088980916        4.2106789286        3.6778915313
  S        10.8573540254        1.6029762189        3.8181469525
  H        10.9665274418        2.9333332586       12.8628938804
  H        10.9484452228        1.1784356505       12.8098531551
  C        12.7766234190        2.0710090326       13.6818292820
  N         8.0152745147        8.7999462385       12.1316846437
  C         7.1711184485        8.3317897593       14.2322455969
  C         6.7072176822        6.0834877057       15.0863649145
  H         6.6069226149        4.5429344418       13.6729185986
  C        11.5318809776        6.4019616345        4.3735030580
  C         9.1526297468        6.3674695110        3.6301084186
  C        10.7537928546        3.8138672697        2.3649462184
  C        10.9621296790        2.4669166399        2.2504784663
  H        13.5752038781        2.7918483473       13.4816821100
  H        13.2757498004        1.1636096078       13.5070937261
  C        12.3691526529        2.3701505254       15.0816573438
  S         7.9303617171       10.2036047114       12.9030797322
  N         7.3051135212        9.6850629148       14.3016153872
  C         6.9134245065        7.5583003798       15.3614483431
  H         6.3617261998        5.4321534038       15.8011948019
  H        11.3388059182        7.2270303825        4.9854993961
  H        11.8457784814        6.7878087324        3.4271418770
  C        12.6731551515        5.4849972147        4.9727238676
  H         8.8503113434        7.1686846018        4.2889114288
  H         9.6412694162        6.9144778786        2.8350820952
  C         7.8106334927        5.6331916260        3.2293759775
  H        10.7473673458        4.5208894363        1.5312548971
  C        11.4819439135        1.7031862072        1.0389233139
  H        12.1073679460        3.4123186187       15.2783196207
  H        11.5809138193        1.7360344547       15.3539109036
  C        13.5095163701        1.9857188930       15.9636065374
  C         6.5955010851        8.1651777015       16.5848476612
  H        12.4631741143        5.2725501327        6.0050445235
  H        12.8744728699        4.5380240070        4.5122255555
  C        13.9755004168        6.2319297558        5.1437509681
  H         7.3107811260        5.2828441772        4.0814728081
  H         8.0289487139        4.7745064595        2.5631934380
  C         6.9206341944        6.6345484112        2.5976176152
  C        11.5186877143        0.2634553698        0.8910963329
  C        11.6221413797        2.4406810075       -0.2256121132
  H        14.4239683120        2.5937067807       15.7780056893
  H        13.6838968388        0.8748164276       15.7453950345
  C        13.1995414896        2.0187869399       17.4366957772
  H         6.6699968755        9.2506428273       16.6357637470
  C         6.2446583470        7.6936624048       17.8044651518
  H        13.9210292731        7.1036139581        5.7568750793
  H        14.2622537333        6.5241828482        4.1257197534
  C        15.0732818890        5.3321720379        5.6347176441
  H         7.0271850444        7.6445442951        2.9102669375
  H         7.1713353215        6.5102824308        1.5707538263
  C         5.4533568517        6.2754134133        2.6404906751
  N        11.1403963433       -0.6934393189        1.8654590548
  C        11.7796721561       -0.3511270423       -0.3081724449
  C        11.9225437590        1.8421325401       -1.4694378582
  H        11.5118048044        3.5169751908       -0.1808947150
  H        14.0916723579        1.8327352409       18.1450583720
  H        12.5315631236        1.1658826793       17.6359534617
  H        12.8261882884        2.9579176960       17.8311377193
  S         5.9999581533        6.0483167879       18.3037606923
  C         6.0823039391        8.6939570104       18.8860045125
  H        14.6423976495        4.5777779031        6.2871515842
  H        15.4044370177        4.7852779910        4.7321000372
  C        16.1758211655        6.1136577065        6.4171907955
  H         5.0696866689        6.4607365575        3.6047521137
  H         5.4967648558        5.1968406651        2.6459068208
  C         4.5763697222        6.9262365863        1.5686267907
  S        11.3330801878       -2.1857888678        1.1529166852
  N        11.9285024738       -1.7322043410       -0.2349297447
  C        11.9933699983        0.3685511761       -1.5147752368
  H        11.9717653782        2.3190613373       -2.3620055497
  C         5.7140248388        6.6663366801       19.9522269504
  N         5.7377687916        8.0483785891       20.0534083980
  O         6.3048299273        9.8955085300       18.7455391938
  H        16.7033623640        6.6033183023        5.6062953897
  H        15.7837810282        6.9181842583        7.1164233195
  C        17.0601142241        5.1433344247        7.1738586563
  H         5.0379547239        7.0830634857        0.6005109053
  H         3.7912753278        6.1783415395        1.3520655499
  C         3.8760828706        8.1698784922        2.2326181581
  C        12.2250508753       -0.4871987056       -2.6843685472
  S         5.2860473434        5.7604966278       21.4004520123
  C         5.6794557887        8.7544952027       21.3654272694
  H        16.5696984273        4.9453300242        8.1249461258
  H        17.0755594908        4.1285735813        6.7388820956
  C        18.4594781955        5.6626114984        7.3289108395
  H         3.7284167042        7.9505414532        3.2937119674
  H         2.8975469607        8.3049884147        1.8780657381
  C         4.6841868935        9.4489874739        2.0199752956
  H        11.8241793503       -1.4752366614       -2.5891884455
  C        12.8717467343       -0.2640423298       -3.8625994244
  H         5.0772950217        8.2218460071       22.1291951567
  H         5.1579946858        9.6695555141       21.2210894471
  C         7.1383841775        9.0726596159       21.8647340396
  H        19.0742143733        4.9681245012        7.9645712947
  H        18.4698352542        6.5992908378        7.8906294731
  C        19.2958525112        5.9582173640        6.0368785159
  H         4.6953682497       10.0524962201        2.9678959555
  H         5.7234786356        9.2788563390        1.7631167706
  C         3.9304878655       10.2961635433        0.9500554170
  S        13.5085696928        1.2575902424       -4.3193016801
  C        12.9963177442       -1.4153686716       -4.8714504856
  H         7.7209571132        9.5000436783       21.0799878639
  H         7.6019649834        8.1382621044       22.0520676974
  H         7.2213543558        9.8720634414       22.6793001297
  H        19.0125000650        6.9180296724        5.7357500161
  H        20.4046778535        6.0185142639        6.1448907929
  H        19.0023933723        5.2905726281        5.1614269120
  H         2.8754275103       10.5604942822        1.2309505583
  H         4.4607066572       11.2524311933        0.7571498957
  H         3.9478005318        9.7343056802       -0.0031940198
  C        13.8237534873        0.3641427092       -5.8614761469
  N        13.6666647147       -0.9530829176       -5.9199391522
  O        12.4995399595       -2.5326307229       -4.7198067603
  S        14.5880671767        1.2113350206       -7.1770454036
  C        13.9291526202       -1.7294992938       -7.1763578017
  H        14.1505021844       -2.7747154113       -6.9088780491
  H        14.8551239932       -1.4192384461       -7.6695966449
  C        12.6496385973       -1.7263254435       -8.1792243456
  H        12.5807481230       -2.6296386918       -8.8082506856
  H        12.4546806687       -0.8636022138       -8.7866616656
  H        11.6878953173       -1.7975599114       -7.6378600271
  H        -2.2612122070       12.6997620878       16.8694613709
  C        -2.0054766349       13.6909860539       16.5626848442
  H        -0.9115156471       13.7730122169       16.3725504679
  C        -2.4469637225       14.6406930569       17.7260521771
  C        -2.6950613573       13.9464209951       15.2433100975
  C        -3.1511438586       13.9319266349       18.9099263941
  H        -1.6296915681       15.2299981742       18.1225271324
  H        -3.2181619360       15.3194159901       17.3213333711
  H        -2.3883422168       14.6929237154       14.4761269723
  H        -2.7156396701       12.9851466394       14.7136667880
  H        -3.7077787862       14.1841156224       15.4695912194
  C        -2.2837853980       13.1085146148       19.8736855701
  H        -3.8505045864       13.2198858457       18.4842101420
  H        -3.6723149410       14.6217241291       19.5649564968
  C        -2.5248998486       13.2264287450       21.3833846318
  H        -2.3899389107       12.0667379207       19.6216305876
  H        -1.2443132805       13.3223252458       19.6518351232
  C        -1.3531434589       12.5846943879       22.2411576331
  H        -3.4645764554       12.7672227513       21.5848555619
  H        -2.6483837824       14.2478765622       21.7751547193
  C        -0.2703641125       13.5744988518       22.5875583504
  H        -1.6433334850       12.1816135401       23.1872061166
  H        -0.8962890772       11.8113738415       21.5779295762
  C         0.9402498117       12.9153327749       23.3888051841
  H         0.1704896323       14.0040380416       21.7233139761
  H        -0.6476876286       14.3112950499       23.2406854339
  C         1.4804609146       11.6421402689       22.7203615467
  C         0.6205467065       12.1383328434       24.6518648378
  C         2.0795898314       13.9918891518       23.6493916928
  C         1.3561959633       10.5168043127       23.4915808703
  C         1.9344116324       11.3406447973       21.4463684419
  C         0.8017375195       10.7888447964       24.7343593726
  C         0.0521941427       12.7041671496       25.8226776360
  H         2.2071507364       14.5572371494       22.7198805628
  H         1.7748288381       14.6492189869       24.4126459713
  C         3.4129363901       13.4537846005       23.9532034939
  S         1.9341775059        9.0109675266       22.7484655146
  C         2.0969014595        9.9613746806       21.3031145474
  H         2.0203339310       12.1241759765       20.6809961505
  C         0.4229480682       10.1645258615       25.8789737776
  H        -0.1118300866       13.7834354668       25.8378284541
  C        -0.2996816224       12.0308784746       26.9509129548
  H         3.7336190262       12.7826473818       23.1653758673
  H         3.4581941963       12.8117220904       24.8041112980
  C         4.4010115674       14.4944951057       24.2462095329
  C         2.4683846906        9.3549359827       19.9558383179
  C        -0.1363272336       10.6962872404       27.0344748489
  H         0.6871238060        9.0823884317       26.0247283024
  C        -0.7820321161       12.3596386885       28.1942139093
  H         5.1927988962       14.0373113495       24.8104883335
  H         3.9755219353       15.2838404747       24.9176379696
  C         5.2339741099       15.1745224211       23.1878919359
  C         2.4574563518        8.0016419019       19.7052861779
  C         2.9583079713       10.2065587471       18.8528211806
  C        -0.4285120219        9.9175318212       28.2967566392
  C        -0.8260760060       11.2240340624       29.0160197444
  S        -1.0908731104       13.7917262811       29.1044911131
  H         5.8011422932       15.9464753010       23.6903790662
  H         4.5526304909       15.7675702835       22.5621428292
  C         6.1252815222       14.2353622198       22.4030858773
  N         2.0435137920        6.9922059405       20.5950692588
  C         2.7191895626        7.4732986726       18.4782027932
  C         3.1474857379        9.6998848408       17.5565554048
  H         3.3505779139       11.1654345922       19.0312643390
  C         0.8199663158        9.2899922333       29.0115090159
  C        -1.6236750626        8.9710361594       27.8785431994
  C        -1.1868851589       11.5174512685       30.3222823042
  C        -1.4510313550       12.8307892081       30.5173454856
  H         7.0736714723       14.8067818450       22.3711576825
  H         6.5237261062       13.3618905535       22.9964135811
  C         5.4708114714       13.7788499874       21.0982348410
  S         2.1437950541        5.5409578243       19.8592565385
  N         2.5560143128        6.0616562996       18.4319464928
  C         3.0152792835        8.2531622224       17.3017382794
  H         3.5026213949       10.4030772279       16.8098490702
  H         1.2622032678        8.4896526030       28.3393946024
  H         0.3758903823        8.8389808432       29.9341315361
  C         1.8759441686       10.2277594900       29.4153383114
  H        -1.2983305580        8.3470592409       27.0223209427
  H        -1.7621021631        8.2799641743       28.6466812739
  C        -3.0208100048        9.6497312043       27.4381414324
  H        -1.3293380888       10.7850905294       31.1195743563
  C        -1.8518472921       13.4701618910       31.8524080618
  H         5.4164072227       14.6332213815       20.3879952073
  H         4.4381394623       13.4928162596       21.4156067926
  C         6.2468782134       12.6683237158       20.4643680467
  C         3.2692407378        7.6365836906       16.0657976420
  H         2.1437112811       10.6025549657       28.4312915036
  H         1.5151794313       11.0372484152       30.0943284274
  C         3.1044685006        9.4744408926       29.9559048415
  H        -2.8592749110       10.3375093253       26.5656612186
  H        -3.3948914319       10.2741129682       28.2050917050
  C        -4.0023044981        8.5793632370       27.1037680971
  C        -1.8406349451       14.9139383471       32.1206257904
  C        -2.0999179860       12.6268756295       33.0027448667
  H         6.4661891887       11.9759319293       21.2803864402
  H         5.7313507994       12.0625811929       19.7327836994
  C         7.5034426690       13.1060764123       19.7408884434
  H         3.3118040947        6.6110381082       16.0522059355
  C         3.6719366156        8.1267612379       14.8214402708
  H         3.6789667624        8.9732195968       29.1952519332
  H         2.8923485155        8.8525442206       30.7439881952
  C         4.0703257682       10.5739904195       30.5467407618
  H        -3.6714187569        8.1797323718       26.1305128871
  H        -3.9338909144        7.8924041662       27.9343891921
  C        -5.3331474091        9.2334754323       26.9011425835
  N        -1.7176158847       15.8934289544       31.0912665698
  C        -2.0281906511       15.4986704614       33.3435222840
  C        -2.3974401547       13.2070110914       34.2546984193
  H        -2.0806655050       11.5866167836       32.9305175431
  H         7.8378187977       12.3393900381       19.1549162083
  H         7.3121875569       13.9397418184       19.0769662069
  H         8.2010184885       13.5685238125       20.5146924438
  S         4.0263943740        9.7910189927       14.4395723376
  C         3.8034392313        7.2299843545       13.6243490984
  H         3.8257019057       11.5904776698       30.1851321112
  H         3.9253348924       10.6093123683       31.6004652055
  C         5.5561695527       10.2150558708       30.4080986322
  H        -5.4780996049       10.1782023248       27.4464361491
  H        -6.0944660461        8.5643228310       27.1826965551
  C        -5.6662877770        9.5195958413       25.4093329689
  S        -1.8494612039       17.3347389286       31.7793402914
  N        -2.1810071966       16.8585443936       33.2704394355
  C        -2.4245325601       14.7267669908       34.4542499194
  H        -2.7078327868       12.6014792685       35.0888221232
  C         4.1595973408        9.2521681754       12.7183006231
  N         4.1006085379        7.9495683987       12.5590875351
  O         3.3893753163        6.0581054562       13.6563231544
  H         6.1770386189       10.9813142933       30.7563856704
  H         5.8003642145       10.1793509725       29.4068512031
  C         6.0203924033        8.8889222595       31.0376759346
  H        -4.7427417173        9.8648571639       24.8922915917
  H        -6.0361994572        8.7043503798       24.8505047635
  C        -6.7510443488       10.5373924857       25.2443907334
  C        -2.7339353858       15.3825062148       35.6900363898
  S         4.7429327168       10.1962464023       11.4390660045
  C         4.1512222563        7.4008157462       11.2332325193
  H         7.0915296191        8.9807841200       31.3449915335
  H         5.5063210312        8.6734026814       32.0141900167
  C         5.9990125036        7.6978634166       30.1640421015
  H        -6.4535828607       11.0405240124       24.3660864096
  H        -6.6778300521       11.3629667266       26.0217980612
  C        -8.1679844468       10.0196364444       25.0922932295
  H        -2.3136532142       16.3456482327       35.6740335178
  C        -3.4233742748       14.9467128480       36.7945048885
  H         4.7405349324        7.8606030526       10.5118892423
  H         4.5543642294        6.4327619387       11.4833565191
  C         2.8359395405        7.0418013494       10.5603079928
  H         6.9360406193        7.6468085950       29.5693135124
  H         5.3011356355        7.7090818240       29.3572806342
  C         5.7829929866        6.3924855208       30.9163273369
  H        -8.5218792273        9.8455588016       24.1069037547
  H        -8.2605055773        9.0348325668       25.4986755654
  C        -9.2593820808       10.6864176314       25.8582971091
  S        -3.9557829812       13.3674947464       37.1361226938
  C        -3.5404379092       15.9185920856       37.9256729709
  H         2.6746622506        5.9569935920       10.3868892731
  H         1.9879142016        7.3505468591       11.1006747377
  H         2.8459950673        7.5086020069        9.5990584756
  H         5.1980179903        5.7475397522       30.3080395574
  H         5.3266886214        6.4323573779       31.9142083792
  H         6.8595990027        6.0374614433       31.0108813198
  H        -9.2031654083       11.8117753357       25.8685340618
  H        -9.2584679660       10.3200189503       26.8685075774
  H       -10.2019739854       10.4382176933       25.2671677522
  C        -4.5643892890       14.0459555140       38.6120832089
  N        -4.3125658853       15.3627441777       38.8775219775
  O        -2.9811636793       17.0089643090       37.9401143285
  S        -5.3998898103       13.1315503429       39.7603371955
  C        -4.6112187771       15.9547508709       40.1017294491
  H        -4.8869757499       16.9815384632       39.8787057496
  H        -5.5896350416       15.5090893398       40.4398619124
  C        -3.3880666984       15.8829110664       41.1642225021
  H        -3.3844348190       14.9616304097       41.7791934811
  H        -2.4806353580       15.8851615925       40.5797018265
  H        -3.4589461637       16.7036365679       41.8601580777
