352
i=
  H         2.5341734092        3.6735065537       12.0935982880
  C         2.8065349053        2.6210502977       12.1573729236
  H         2.1531674814        1.9454617488       11.6083206412
  C         4.1686171169        2.4214318675       11.6395361067
  C         2.8137296044        2.2575413588       13.6276764166
  C         4.3490402262        2.6638743686       10.1071889818
  H         4.4211372699        1.3971039614       11.8714665386
  H         4.8711560681        3.1011964449       12.0941316288
  H         3.8319436027        2.2139470914       14.0682687040
  H         2.3445378612        1.2515837072       13.8368230856
  H         2.1394600694        3.0255630161       14.0518581223
  C         5.2340408892        1.5735798485        9.4255809947
  H         3.2942889579        2.6183277372        9.7635669155
  H         4.8203714260        3.6425722125        9.9458829173
  C         5.8292222437        2.0141851696        7.9948326640
  H         4.7719407808        0.5931727303        9.3557835863
  H         6.1063878940        1.3823605227       10.0338744863
  C         6.9871209358        3.0076705340        8.1430778306
  H         5.0555444657        2.5312443558        7.5132864427
  H         6.2261030248        1.2078846564        7.3663266062
  C         8.2733295011        2.2670013326        8.6550014735
  H         7.0676433880        3.4892560638        7.1645562874
  H         6.9365172334        3.7202225600        8.9858064755
  C         9.5251421670        3.0861089924        8.7880859161
  H         8.4860576860        1.5403604642        7.8469100778
  H         8.1299155379        1.7347591220        9.6345544575
  C         9.1691058103        4.4184452190        9.4927326700
  C         9.9767370360        3.8540036605        7.5953888956
  C        10.6584719456        2.3328544534        9.5270591727
  C         9.4339862945        5.5615537443        8.8051180921
  C         8.7288184980        4.7859048231       10.8184828543
  C         9.9556983436        5.2057709375        7.5860508962
  C        10.4517526787        3.2773520620        6.4287241874
  H        10.3569294493        1.9527481037       10.4869202683
  H        10.9754088081        1.4079295526        9.0348914980
  C        11.8633223924        3.2220494870        9.8281352707
  S         9.0117873597        7.0230758093        9.6127683659
  C         8.6159212962        6.1347746439       10.9683014842
  H         8.5959139221        4.0177593498       11.6208956671
  C        10.3037045374        5.8612864269        6.4416587292
  H        10.5257871429        2.2004351255        6.4369644891
  C        10.8077605008        3.9163889358        5.2716538187
  H        11.6753173198        4.2145481275       10.2637998000
  H        12.5890832004        3.4448033992        8.9916395814
  C        12.7867906020        2.5133783978       10.8529138907
  C         8.1590386413        6.8524482760       12.1976630272
  C        10.7202273678        5.2741651453        5.2339914477
  H        10.2535881309        6.8755070208        6.4767937625
  C        11.1473933643        3.5362529944        3.9962362756
  H        13.7058573282        3.1014836490       10.7652061920
  H        12.9774876853        1.4633623713       10.5974488050
  C        12.1323302913        2.5562316011       12.2418602924
  C         8.0997057120        8.2183119892       12.4287027195
  C         7.4736957113        6.0397519313       13.3027345732
  C        11.0826106804        5.9280004080        3.9634330801
  C        11.3295786270        4.5956522539        3.1943635976
  S        11.3762317384        1.9861388729        3.2643400486
  H        11.4879642796        3.4618348454       12.4036246487
  H        11.4911254359        1.6920876765       12.3377340640
  C        13.2584067477        2.3117213517       13.3601865474
  N         8.5161073650        9.1347766823       11.5023812930
  C         7.6125253906        8.7346296611       13.5912083810
  C         6.9375153474        6.5485007611       14.4435808337
  H         7.3757493771        4.9813703045       13.1316154594
  C        12.3676295744        6.7040475928        3.9997753430
  C         9.8208945013        6.6649446653        3.3422944557
  C        11.5606304391        4.1782099724        1.8669230653
  C        11.6496380751        2.8171424914        1.8100296420
  H        14.0981034632        2.9903001749       13.1167613779
  H        13.8655981645        1.4029649316       13.1526302722
  C        12.7026518332        2.3755331038       14.7882179493
  S         8.3354930612       10.6320778925       12.2156966003
  N         7.6820209681       10.1221223143       13.6467651093
  C         7.0455337853        7.9673470802       14.7056486827
  H         6.5866426115        5.8274325429       15.1971832024
  H        12.2065515708        7.4891399330        4.7606092645
  H        12.5630132796        7.1601319180        3.0108167111
  C        13.6772341063        6.0506374507        4.4127340525
  H         9.5708454959        7.5459789124        3.9249386497
  H        10.1219334646        7.0336814205        2.4156424495
  C         8.6163662738        5.7667754271        3.0743886616
  H        11.5365308503        4.9397744076        1.1132041995
  C        11.8336269462        2.0887048214        0.5313842094
  H        11.8680373977        3.0533337591       14.8420940457
  H        12.2000802613        1.4776210383       15.0862663343
  C        13.8123677492        2.4467123964       15.8322316846
  C         6.6035569932        8.5164538814       15.9792607272
  H        13.5097788282        5.2839127294        5.1640674876
  H        13.9493278767        5.3795528669        3.5184402998
  C        14.7239482802        6.9978725931        4.8996958840
  H         8.3795961012        5.1851938197        3.9762127943
  H         8.9048216217        4.9751403258        2.3925774764
  C         7.4222435975        6.5785363980        2.4354109206
  C        11.7772955464        0.6974929159        0.3759170472
  C        12.1487246208        2.7924383906       -0.7254900997
  H        14.3712033408        3.4364612769       15.6635978821
  H        14.4660857713        1.5905093418       15.7141222508
  C        13.3138427587        2.4875976553       17.3009940674
  H         6.4716024927        9.5965893601       15.9233947273
  C         6.4036511941        8.0139562168       17.2565428996
  H        14.4600967889        7.2201519355        5.9531193192
  H        14.6779850684        7.9791490047        4.4011768197
  C        16.0907150899        6.3733897690        4.7756375936
  H         7.4015990311        7.5015397358        3.0035632281
  H         7.7229771365        6.9402781871        1.4441069144
  C         5.9955544726        5.9349582521        2.1746792528
  N        11.6405375653       -0.2083892227        1.3856033788
  C        12.1264633706        0.0457604286       -0.7585327901
  C        12.3061929773        2.1582924854       -1.9410473874
  H        12.1709847543        3.8521349442       -0.7052953538
  H        13.0107785412        1.5615132624       17.8090714201
  H        12.4230392193        3.1811460135       17.3467745990
  H        13.9843908866        2.9009424227       18.0527220848
  S         6.4320471192        6.3804046000       17.6866362468
  C         6.2762724420        8.9333913128       18.4108636254
  H        16.1634468401        5.7009477324        3.9766509821
  H        16.8232418788        7.2212197784        4.7452690878
  C        16.4314721786        5.4513023540        6.0205516758
  H         5.6762473447        5.2232901389        2.9128202371
  H         5.9873275682        5.3835757621        1.1602991562
  C         4.8107709774        6.8409557954        2.1424971041
  S        11.8730352471       -1.7133292009        0.8938448326
  N        12.2897349282       -1.3404365458       -0.5599745878
  C        12.3969193917        0.6775875293       -1.9842661702
  H        12.4225532373        2.8029559243       -2.7847206487
  C         5.9755395343        6.9519636089       19.3532360719
  N         6.0212158035        8.2572839272       19.5420870300
  O         6.3793204330       10.1087427244       18.3555671896
  H        16.2463210703        6.1361797121        6.8239505728
  H        15.8317828636        4.5746155771        6.1137179077
  C        17.8989178038        5.0114703056        5.8879667219
  H         3.9173472870        6.2425997814        2.3483830691
  H         4.9134437769        7.4345551880        3.0891130353
  C         4.7251346446        7.7410414609        0.8863620574
  C        12.6352415062       -0.0622091567       -3.1655454626
  S         5.9373506231        5.9257857080       20.7320470731
  C         5.8641938425        9.0183353999       20.8119471137
  H        18.1153694762        4.0080456001        6.1606162677
  H        18.2486156517        5.0707933241        4.8256824766
  C        18.6580831494        5.9877655684        6.7556524822
  H         4.4472681202        7.1361623792       -0.0068527586
  H         5.6297137897        8.2605655170        0.5723858875
  C         3.6597363043        8.8409252703        0.9960872682
  H        12.2860615197       -1.0856951035       -3.1648327265
  C        13.0982311900        0.3178831623       -4.3757755115
  H         5.0184948003        8.6651694582       21.3990188973
  H         5.5364539131       10.0440059125       20.6815808318
  C         7.0906080115        9.0404123353       21.8027581611
  H        18.4405746367        5.7866100030        7.8070406540
  H        18.3631001419        7.0416175216        6.5518034739
  C        20.1058713074        5.7181543804        6.5696462150
  H         3.0074337501        8.9979186294        0.1066876119
  H         2.9439652207        8.5200282315        1.7805296456
  C         4.4240557729       10.1994542935        1.2233225630
  S        13.7014256496        1.8729146731       -4.7943638387
  C        13.1307668823       -0.7553244003       -5.4434989260
  H         7.1422098556        9.8769969226       22.4777318096
  H         8.0469152604        9.0264868362       21.2993419830
  H         6.8694327354        8.1233089592       22.4333576147
  H        20.2373380370        5.8954436522        5.5365609586
  H        20.7915244720        6.3544210832        7.2097944547
  H        20.3019656712        4.6662102774        6.6871217024
  H         5.0489248640       10.3817023907        0.4307555737
  H         3.6180253895       10.9889637919        1.1195310913
  H         4.9067543119       10.2704034012        2.1997656725
  C        13.9445973029        1.1485006999       -6.4572223062
  N        13.6761293800       -0.1742633979       -6.5095528504
  O        12.6045026234       -1.8959734551       -5.4277458853
  S        14.8390598884        1.9028147535       -7.7469251756
  C        13.8363899161       -0.9314378780       -7.7630426947
  H        13.8992831978       -2.0071671630       -7.5050808001
  H        14.7342824527       -0.7279511041       -8.3410988991
  C        12.6574948685       -0.6046623864       -8.5697330266
  H        12.0952906699        0.2345694322       -8.2997025456
  H        11.9100487383       -1.3955556027       -8.7213888441
  H        13.0911620116       -0.3831867385       -9.5661681881
  H        -2.7747064887       14.7777285546       16.6249914846
  C        -2.8125845131       13.6837302178       16.4812825791
  H        -3.8396159258       13.5465698560       16.7455814369
  C        -1.8015968377       13.1572154333       17.4702478641
  C        -2.4788945124       13.1622950759       15.0206713516
  C        -2.0151881220       13.7033029863       18.8663033153
  H        -1.6692693492       12.0698504676       17.4781225711
  H        -0.8612789274       13.4804440580       17.0801502775
  H        -1.5267772359       13.5185483959       14.6817408367
  H        -2.3457712889       12.0944887038       15.1572707071
  H        -3.2017919964       13.1754522207       14.2209300847
  C        -1.4579576769       12.8094842737       19.9738547964
  H        -3.1763217954       13.6691836655       19.1010724643
  H        -1.5471408466       14.6952497746       18.8942381662
  C        -2.1108136872       13.1871882060       21.2980218499
  H        -1.7069900193       11.7567178307       19.8464927277
  H        -0.4307516068       12.8565950113       20.0629909374
  C        -1.1718328648       12.7428634019       22.3224825611
  H        -3.0232123538       12.6413690008       21.5227333569
  H        -2.3586602097       14.2761599507       21.4120901855
  C         0.0908722528       13.5408410446       22.4952054735
  H        -1.7049818643       12.5466399098       23.2688423696
  H        -0.8913051157       11.6971724589       22.0665698355
  C         1.3228902006       12.8764991697       23.2219178776
  H         0.3801199920       14.1340632335       21.5973161848
  H        -0.2836269395       14.2884001580       23.2278864648
  C         1.6399320653       11.5511283647       22.5445777679
  C         0.9715609319       12.1844338557       24.5220887383
  C         2.5242140125       13.8196151405       23.4807447539
  C         1.5590029886       10.3965958489       23.3224857072
  C         1.9941388545       11.1853791245       21.2005252697
  C         1.0756946665       10.8002732478       24.5810757317
  C         0.4735438677       12.6788902922       25.6634347353
  H         2.7042959360       14.4756927009       22.6833434216
  H         2.2783893265       14.5379799448       24.2890452031
  C         3.8416555144       13.1362541508       23.9279668161
  S         1.8929118006        8.9982285701       22.5462164720
  C         2.2114674079        9.8441751368       21.0606306432
  H         2.0553818035       11.8101819753       20.3012732958
  C         0.6591995876       10.1038093186       25.6585394385
  H         0.3455077544       13.7468772400       25.8074204556
  C         0.1390731669       12.0113258425       26.8263631581
  H         4.4150174224       12.6121881930       23.1769784426
  H         3.5716048619       12.5459034073       24.7879400341
  C         4.8872578584       14.2150040018       24.3006536858
  C         2.5431828633        9.1729277350       19.7605723171
  C         0.2160850906       10.6613457213       26.8833469254
  H         0.6150778322        9.0433668873       25.5990224195
  C        -0.2823270889       12.3280638015       28.1116712566
  H         5.5499807063       13.8380358891       25.1157738558
  H         4.4678100081       15.0687122470       24.8991330316
  C         5.7947088626       14.8037893678       23.1379880730
  C         2.5909232423        7.7782693351       19.6059250755
  C         2.8030886572       10.0321016549       18.5867575376
  C        -0.1957921401        9.8751190873       28.1275988945
  C        -0.4492509246       11.1776162441       28.8800932715
  S        -0.6688403163       13.7744838639       28.8534366095
  H         6.5219843729       15.4413139743       23.6562065438
  H         5.1915292742       15.5572306679       22.7312044652
  C         6.5712664899       13.8615216161       22.1493549900
  N         2.3655421238        6.8508004880       20.5791152709
  C         2.9210331316        7.2069194074       18.3865889747
  C         3.1573689605        9.4253674944       17.3571479335
  H         2.7944639016       11.1259853458       18.5890042612
  C         0.9993530557        9.2189423742       28.7890121272
  C        -1.4984303687        8.9781878411       27.9498368181
  C        -0.8646479812       11.5244760442       30.2279308277
  C        -1.0862082756       12.8656328013       30.3615615524
  H         7.5323835828       14.2425709556       22.0888175135
  H         6.6091645455       12.8250405699       22.5247163809
  C         5.9025447519       13.8235810206       20.7796996052
  S         2.4589844291        5.3427775315       19.9040212956
  N         2.8184100926        5.8232180344       18.4036979449
  C         3.1443076812        7.9793649579       17.2064099354
  H         3.3874030808       10.0986328518       16.5366294868
  H         1.4315699652        8.6196464547       27.9900016112
  H         0.5618002072        8.4639964693       29.4460230012
  C         2.0337243292       10.0949040664       29.5033309060
  H        -1.3043518326        8.4577267815       26.9201155973
  H        -1.5583528376        8.1111253252       28.6208835472
  C        -2.8084219210        9.7437505386       27.9592532944
  H        -1.0837924541       10.7515883875       30.8964437766
  C        -1.5019254337       13.6391909511       31.6028610548
  H         5.3828545130       14.7848866006       20.5413428773
  H         5.1025451924       13.0815058267       20.8736792122
  C         6.8075030735       13.3857890978       19.6559868412
  C         3.3658645170        7.3480510434       15.9581593238
  H         2.3715254440       10.9374765193       28.9062013205
  H         1.6298952233       10.5798269396       30.3398548818
  C         3.1330512456        9.2363332495       30.0826047537
  H        -2.8322108909       10.5352901435       27.2300107580
  H        -2.8906632407       10.2037366410       28.9697366654
  C        -3.9887761424        8.8487579540       27.8134550347
  C        -1.6770312374       15.0251474506       31.7417724406
  C        -1.7932900325       12.7929645373       32.8518633060
  H         7.7971541268       13.6539706770       19.8812538051
  H         6.7964095140       12.3039619274       19.8564240593
  C         6.2559147128       13.4548465748       18.1458665708
  H         3.2514776259        6.3145470979       16.0881981696
  C         3.6775232895        7.7547559215       14.6665715520
  H         3.5709128170        8.6094415021       29.3211069396
  H         2.6119581758        8.6037228843       30.8335750739
  C         4.2785874581       10.0391310794       30.6861437181
  H        -3.9630718503        8.0323188661       27.1269973622
  H        -4.1779017093        8.4528960249       28.8027313803
  C        -5.2733593365        9.6796182446       27.4934194008
  N        -1.4099141965       15.9905466241       30.7285913882
  C        -1.9075831648       15.6423424400       33.0115329032
  C        -2.2247834118       13.4239495749       34.0113135612
  H        -1.8525456257       11.7307317308       32.8234434808
  H         6.3375859632       14.4574706893       17.7860223205
  H         6.8268824244       12.7490625876       17.5504560918
  H         5.1852875672       13.1910579390       18.2022388495
  S         3.7969213606        9.4150852442       14.1210716326
  C         3.7321852484        6.6887947660       13.6220262295
  H         4.5693953208       10.8338121662       29.9702287848
  H         3.8305889097       10.6748990194       31.5361504267
  C         5.5093141606        9.2391303924       31.0766907182
  H        -5.3856447318       10.6978135101       28.0156517682
  H        -6.1392502179        9.0613068746       27.8766248438
  C        -5.4435344606        9.8224769055       25.9414807935
  S        -1.4937894702       17.4804233010       31.4373365599
  N        -1.9731010203       17.1036093560       32.9661425762
  C        -2.1950089456       14.9242704828       34.1774906230
  H        -2.4258350518       12.7778702356       34.9073050698
  C         4.0428367281        8.6425465710       12.5353155296
  N         4.0257124049        7.2993617630       12.4593456826
  O         3.8204434368        5.4790708389       13.8708502886
  H         6.1525887526        9.7083924801       31.8174497274
  H         6.1480959296        9.0987960157       30.2762728624
  C         5.1292714846        7.9288719024       31.7655435922
  H        -4.5540703229       10.1867164246       25.4454543027
  H        -5.5813996412        8.8218393017       25.5103747610
  C        -6.6058263120       10.7307313476       25.5761271763
  C        -2.4846790247       15.6552619075       35.3974035121
  S         4.7320779176        9.5208420037       11.1709718396
  C         3.9901786523        6.6108671568       11.1304782589
  H         4.4658982938        8.1783273785       32.6228397247
  H         4.6947855527        7.2540518204       31.0352759993
  C         6.2094508599        7.0881971769       32.4176729173
  H        -6.6348454151       11.0941079835       24.5052481275
  H        -6.5371505847       11.6522863398       26.1797094790
  C        -7.8877225597       10.0168714245       25.7939698337
  H        -2.1451042819       16.6718274093       35.3982072358
  C        -3.0541883230       15.2365813356       36.5858025350
  H         4.6058175101        7.0379383511       10.3393823926
  H         4.3767463667        5.6194146087       11.2231673598
  C         2.6061436455        6.5649374658       10.5776963448
  H         6.2456566922        7.1477152028       33.4844956020
  H         7.1750516220        7.4966330196       32.1981603541
  C         6.3622941536        5.7043521725       31.7401866071
  H        -7.9613681394        9.4938501924       24.8444032810
  H        -7.7810086383        9.3617255685       26.6225812292
  C        -9.1459837803       10.9787852205       26.0984016882
  S        -3.6274455126       13.6879148401       36.9609202252
  C        -3.1401368291       16.2135762166       37.6893451977
  H         2.3713405228        7.3509209126        9.9969580190
  H         2.4190888536        5.7457933180        9.8706538295
  H         2.0122445583        6.5062410498       11.4939780080
  H         7.1419442241        5.1048540428       32.3111661212
  H         6.5780231074        5.9128358655       30.6797543067
  H         5.4522275516        5.0562734616       31.8461650324
  H        -9.2253162715       11.2439904827       27.1826255430
  H       -10.0832489199       10.4856620000       25.7586894023
  H        -9.0554233700       11.8892221501       25.4975930288
  C        -3.9639803358       14.3612619649       38.5528538016
  N        -3.7769499851       15.6634519076       38.6889255573
  O        -2.7140204315       17.3467193506       37.6857191346
  S        -4.5082585893       13.5084198507       39.9523266729
  C        -3.8571372298       16.5042197130       39.8789929205
  H        -3.9939173589       17.5657315168       39.6876766618
  H        -4.7979521849       16.2458730281       40.3199308283
  C        -2.6795724575       16.2282729666       40.8121963048
  H        -1.8183665595       16.8320067754       40.5155992797
  H        -3.0223452408       16.5639081992       41.7357989975
  H        -2.4864887795       15.1115356289       40.9267400858
