352
i=
  H         2.4155324625        2.0345608726       13.5018208085
  C         3.3712881290        2.3071946575       13.1012982437
  H         3.8032220836        1.3488471687       12.8051765494
  C         3.1336659076        3.0413625425       11.8091689380
  C         4.1342341184        2.9915775177       14.2509485411
  C         4.4473384351        3.1153740018       11.0259124254
  H         2.5569282464        3.9385914446       12.0178433844
  H         2.4414338930        2.5227808868       11.2061923183
  H         4.7388639500        2.2609924110       14.8252210772
  H         3.4531793782        3.4597276326       14.9637924214
  H         4.8193836002        3.7519406703       13.8153655881
  C         4.9410320344        1.8294565187       10.2928735330
  H         4.4201512464        3.8610362944       10.3229296038
  H         5.2620410277        3.4378747746       11.6598034580
  C         5.3950465545        2.0204453131        8.8759402820
  H         4.0953554459        1.0362863042       10.3013046776
  H         5.7521965008        1.4112827954       10.9214667107
  C         6.7365613442        2.7418052136        8.6479032689
  H         4.5952869179        2.5191117005        8.3206173061
  H         5.5246916923        1.0691600543        8.3780730980
  C         7.9532287899        1.9926515426        9.1625957350
  H         6.7230690556        3.1258830192        7.6350194819
  H         6.4356778745        3.5461908474        9.2957154108
  C         9.1948765886        2.9191945715        9.0593795538
  H         8.0089943298        1.0792411449        8.6019208341
  H         7.7393339144        1.7150441206       10.1582954205
  C         8.8369895793        4.2492993253        9.7222052161
  C         9.6267692104        3.5892270584        7.8045155764
  C        10.3974285109        2.2200333100        9.6445281150
  C         9.1919912547        5.3342669374        8.9583544521
  C         8.3702118092        4.6497683905       10.9552772168
  C         9.7224987337        4.9149804135        7.7432449394
  C        10.1338095778        2.9614282624        6.6517229236
  H        10.0237525927        1.6925354636       10.5358319253
  H        10.8166627807        1.4496121795        8.9223508008
  C        11.6584694630        3.0256172305        9.9138013929
  S         8.8362616242        6.8732502195        9.7650354762
  C         8.2105446898        6.0186331265       11.0925071296
  H         8.0731099401        3.8571792247       11.5572412265
  C        10.2708460517        5.5258114186        6.6365146795
  H        10.0710958577        1.8822617201        6.5327345487
  C        10.5947448549        3.5907408204        5.5223987149
  H        11.3167246022        4.0555402402       10.2086628910
  H        12.0756701885        3.1994305142        8.9213536838
  C        12.6563631273        2.4224972284       10.8700726014
  C         7.9417152470        6.7190214569       12.4122228561
  C        10.6797664276        4.9250962137        5.4573862872
  H        10.3035457836        6.6062943551        6.7358692528
  C        11.1018261008        3.1817209753        4.2881509158
  H        13.5822937160        2.9285169437       10.8973106956
  H        12.7946775140        1.3598889452       10.6783547252
  C        12.2160120203        2.4332618022       12.3086127012
  C         7.9134130076        8.1374695346       12.6829741966
  C         7.5525503508        5.8226937451       13.5331931951
  C        11.1505137060        5.5805927758        4.2037954338
  C        11.4244392061        4.2710310775        3.5095141634
  S        11.2847166561        1.6404222162        3.5303696504
  H        11.9439017716        3.4475596059       12.5614101745
  H        11.4494920080        1.7209553265       12.5938932704
  C        13.4765859746        2.1213288981       13.0888629176
  N         8.3028174506        9.1891738134       11.8102633514
  C         7.6406342258        8.6195795031       13.9383517537
  C         7.2255259889        6.3950501705       14.7448223129
  H         7.5162523882        4.7799585539       13.4468092888
  C        12.3539609872        6.4632427086        4.4738375064
  C        10.0402302550        6.3808802385        3.4559634893
  C        11.8112651729        3.8692988738        2.2205766850
  C        11.7531288483        2.5220822882        2.0883604933
  H        14.0303687680        3.0297562548       13.3340163892
  H        14.1799260739        1.5053560564       12.5263740048
  C        13.1542453445        1.4669796232       14.3930666604
  S         8.2102632756       10.5961093491       12.5806034724
  N         7.8544145820        9.9786842822       14.0492530061
  C         7.1776201599        7.8242117540       14.9878457018
  H         6.8062404340        5.7003125703       15.4563595435
  H        12.1616164343        7.3092388467        5.1602296144
  H        12.5994424763        6.9136289433        3.5790031276
  C        13.4545246465        5.6729807375        5.1510736082
  H         9.7480925551        7.2059367069        4.0760869777
  H        10.4515088100        6.7706868250        2.5210396074
  C         8.7801367957        5.5213815021        3.2489826869
  H        12.1167304808        4.5432471253        1.4887464038
  C        11.9348659667        1.7809849379        0.7560980247
  H        12.5121197345        0.6190646799       14.3445709522
  H        14.0862063327        1.2189207093       15.0072406865
  C        12.3234355210        2.3921970054       15.3220263919
  C         6.9900824230        8.5003895296       16.2309634777
  H        12.9888234520        5.2579612418        6.0481592126
  H        13.8026519410        4.8092909661        4.5139335932
  C        14.6361815499        6.5242620272        5.5040408407
  H         8.3420124320        5.2015776343        4.1830770631
  H         9.1037603967        4.6469395614        2.5788580412
  C         7.6851794705        6.3128720159        2.5277886260
  C        12.0486691581        0.3796073177        0.6557400212
  C        11.9561865757        2.5009558108       -0.5456523903
  H        11.2273434498        2.2939693940       15.1450994350
  H        12.6342364099        3.3713442869       15.0849365480
  C        12.7073100205        2.2262592411       16.7754126504
  H         6.9281026425        9.5766515153       16.1160850067
  C         6.7963938901        8.0288017200       17.5049214152
  H        14.3273876332        7.2927560898        6.2397589502
  H        14.9602195556        7.0070061131        4.5926109734
  C        15.7178336913        5.5717734969        5.9648165830
  H         7.3283271246        6.9362284067        3.3843294347
  H         8.1084823361        6.8594309792        1.6969846956
  C         6.5288266270        5.4654644775        2.0120594983
  N        11.8917579130       -0.5741840690        1.6344750098
  C        12.2626367683       -0.2847300013       -0.5405614714
  C        12.2349029763        1.8767200346       -1.7221357736
  H        11.7552057361        3.5922611197       -0.5454656437
  H        13.7151507519        2.2029644248       16.9502193687
  H        12.2904403036        1.3220998890       17.2007626205
  H        12.2842790090        2.9634488321       17.4414957810
  S         6.4328705879        6.3845047970       17.9104215650
  C         6.7392580198        9.0434967304       18.5956157256
  H        15.3290525247        4.7273324047        6.5654568541
  H        16.1938017811        5.1826761420        5.0927268033
  C        16.7162096169        6.3705829560        6.7368739461
  H         6.3594588122        4.6972977611        2.7714569990
  H         6.7479400823        5.0032765300        1.1294506606
  C         5.2254287166        6.2001077042        1.9927417950
  S        12.1532927336       -2.0655437977        1.0658025650
  N        12.3009555213       -1.6798447122       -0.4604159659
  C        12.4791522932        0.3773838877       -1.7580925304
  H        12.3232014808        2.5396916807       -2.5930884500
  C         5.9981256858        7.0743932630       19.5060552812
  N         6.2841433760        8.4087407681       19.7096701692
  O         6.9027099623       10.2821579148       18.4435120514
  H        17.0120185824        7.1208286411        6.1004501740
  H        16.2726376443        6.9016202417        7.6267335412
  C        17.9350518234        5.4902610612        7.0394873305
  H         4.6464069332        5.8686396848        1.1232882437
  H         4.5074175363        6.0051785037        2.8196518123
  C         5.3828038522        7.7688417449        1.8552187146
  C        12.7173171712       -0.3061208450       -3.0225838921
  S         5.7526685043        6.0896028132       20.9112819417
  C         6.1539422456        9.0348323937       21.0348593226
  H        18.0148900676        5.1765188879        8.0500979201
  H        17.7860414216        4.5577010454        6.4926815593
  C        19.1495604461        6.3659692673        6.7446413910
  H         6.0626393490        8.0482511954        1.0907408865
  H         5.7157033862        8.1601899486        2.8226416059
  C         4.0586090137        8.4256592232        1.4572656887
  H        12.5268149870       -1.3045121538       -2.9221978588
  C        13.3017662005        0.0585310231       -4.1907026627
  H         5.3039409018        8.5629153283       21.5188258596
  H         5.9323382504       10.1148708882       20.8941312020
  C         7.4511289813        8.9682562574       21.8340626992
  H        19.7203216085        6.3168218805        7.6672834142
  H        19.0803403105        7.3616733067        6.6739914538
  C        20.1102671148        5.8792595375        5.6733431721
  H         3.6533747849        8.0742046731        0.5118662661
  H         3.2636406880        8.2406347675        2.0906212151
  C         4.2496513303        9.9151639206        1.3729896043
  S        13.6721744468        1.6170425932       -4.7502047437
  C        13.5691386233       -1.0139939334       -5.2846289790
  H         7.2452512505        8.2170862461       22.5805388285
  H         7.7221679299        9.9669730488       22.2387247147
  H         8.2538761806        8.5624495072       21.2526761727
  H        20.9075764201        5.2347959703        6.0221000373
  H        19.5219519754        5.3809776862        4.8853887213
  H        20.6304311159        6.6718550905        5.1954955127
  H         4.9574852327       10.0699472879        0.5766697709
  H         3.2348430600       10.3153986001        1.1641627296
  H         4.7710887218       10.3538260423        2.2349667692
  C        14.1153212752        0.9397621829       -6.2879665243
  N        14.1431566344       -0.4084444920       -6.3523914578
  O        13.3026028276       -2.2300403151       -5.1120344147
  S        14.8864976651        1.7822833880       -7.6648407930
  C        14.3423146465       -1.1821353634       -7.5905188163
  H        14.5383281187       -2.2054135364       -7.1532308059
  H        15.3208749551       -0.9993126259       -8.0136933603
  C        13.1324428710       -1.2273032751       -8.4932600216
  H        12.2797750900       -0.8484576768       -8.0226290278
  H        12.9791181548       -2.3355757597       -8.6655232519
  H        13.2385240034       -0.7603030149       -9.4503865374
  H        -2.5736244701       15.2570586295       16.4977033774
  C        -2.6853055549       14.1600961107       16.4591705225
  H        -3.7237788136       13.9902428350       16.7805040641
  C        -1.6964031405       13.5229039719       17.4649937750
  C        -2.4830638140       13.7963388031       15.0175341189
  C        -1.7741222167       14.1564973481       18.8501667840
  H        -1.9353484883       12.4858870846       17.6719128448
  H        -0.6784052707       13.6479474156       17.0601659512
  H        -1.5504241826       14.1854412122       14.6003269849
  H        -2.4578907609       12.7262782897       14.8793282436
  H        -3.2188065509       14.1383849247       14.2408305378
  C        -1.9512169487       13.0429388388       19.9433060904
  H        -2.5488275942       14.8969505863       18.9828159570
  H        -0.8176234093       14.6724631916       18.9521049976
  C        -2.1843942262       13.5628574846       21.3558805279
  H        -2.7747848312       12.3283360267       19.7664339136
  H        -1.0489496718       12.4090639212       20.0163020994
  C        -1.2176763140       13.0353079794       22.4956405593
  H        -3.1775529333       13.2213349974       21.5520150599
  H        -2.2511619296       14.6432236215       21.4244451808
  C         0.0595878083       13.8500409643       22.3862486930
  H        -1.7643443589       13.1422594342       23.4167386037
  H        -0.9680704621       11.9574657501       22.3097970807
  C         1.2548296642       13.0978603564       23.0884150950
  H         0.3375048849       14.0625824980       21.3156294708
  H        -0.0363684750       14.8120716777       22.9539766900
  C         1.5735930405       11.7056911321       22.4240498126
  C         0.8780642835       12.3855361071       24.3236314694
  C         2.4897635045       14.0072694688       23.1254837902
  C         1.2903104324       10.5975182202       23.2339297536
  C         2.1084294997       11.3136273131       21.1760394227
  C         0.8400162967       11.0209566093       24.4545025577
  C         0.5891073316       13.0007097917       25.5624487065
  H         2.6586875539       14.2791196739       22.0366658782
  H         2.2077751266       14.8893555047       23.7085268750
  C         3.7301245357       13.3181127190       23.7271551961
  S         1.7742484436        9.1085680349       22.5934907992
  C         2.3728497590        9.9534948331       21.1264953298
  H         2.2278862014       12.0961824141       20.4353489452
  C         0.4772334103       10.4449365842       25.6882413655
  H         0.6672994443       14.0550008139       25.6207694957
  C         0.1944089428       12.4180502808       26.7861771660
  H         4.1010266527       12.5017863385       23.0210019750
  H         3.5320532099       12.8283513651       24.6984637283
  C         5.0734380907       14.1127250404       23.8922017105
  C         2.8540806744        9.3035097454       19.8444175783
  C         0.1436336383       11.0759180808       26.8705824760
  H         0.3316569498        9.3768177175       25.6925988614
  C        -0.2477382460       12.8576184487       28.0286215406
  H         5.7896338236       13.4227691378       24.3376446213
  H         5.0742956559       14.8878432738       24.7028515286
  C         5.6410397582       14.7253884533       22.6269573189
  C         2.7929212239        7.9403256400       19.5352506265
  C         3.3090512481       10.1656645996       18.7343192518
  C        -0.3544408763       10.4355410817       28.1284112929
  C        -0.5424583374       11.7852628314       28.8421952848
  S        -0.3062482086       14.3003451202       28.8364448100
  H         6.4945692470       15.4060471150       22.8281101162
  H         4.8463044624       15.3819479491       22.1896790012
  C         6.3246974506       13.7213730720       21.5603635188
  N         2.5747269601        6.8866687949       20.4462627295
  C         2.9757972487        7.4352422403       18.2542636843
  C         3.6306096395        9.6139854384       17.5074023976
  H         3.4268948893       11.2306591455       18.8885412259
  C         0.8153336781        9.7128544673       28.8392213212
  C        -1.6286470580        9.6010939932       28.1026720214
  C        -1.0034340438       12.1673695448       30.1074438819
  C        -0.9213249787       13.5254533057       30.2617876748
  H         7.3752574526       14.1366846397       21.3665560532
  H         6.6023417145       12.7799675934       21.9780845994
  C         5.5183617186       13.5114290670       20.2937273101
  S         2.7759343833        5.4761437494       19.6557246468
  N         2.9741559204        6.0190117413       18.1344924546
  C         3.3810818448        8.2415799959       17.1629240371
  H         3.9182545098       10.2251894058       16.7030418986
  H         1.0543577468        8.8236111836       28.1985923526
  H         0.4228062168        9.2113539354       29.7029343884
  C         2.0871305932       10.5537787710       29.1273191148
  H        -1.6733695408        8.9502346167       27.3196851489
  H        -1.8524957363        9.0623225875       28.9835225607
  C        -2.9758826969       10.3983477500       27.8717831144
  H        -1.4049635718       11.4147300478       30.7530765763
  C        -1.2648390631       14.2784563385       31.5111448293
  H         4.6789133952       14.2543467935       20.3000269334
  H         4.9399077764       12.5929131654       20.3722632115
  C         6.4138422946       13.5132943772       19.1115949808
  C         3.5203906393        7.6945612481       15.8532235611
  H         2.3517718744       11.0223363288       28.1935871062
  H         1.8999688186       11.3393417263       29.8442761266
  C         3.2355967763        9.7106791810       29.4969004754
  H        -2.7745244875       11.2769410823       27.2129361028
  H        -3.3072775106       10.9141031279       28.8505886855
  C        -4.0797712339        9.5645629115       27.2107013269
  C        -1.3339941455       15.6992384278       31.6078126038
  C        -1.4713901129       13.5898605691       32.8020001969
  H         6.5915008686       14.5835661818       18.9885279857
  H         7.3530410774       12.9200284797       19.4674905944
  C         5.8281712956       13.0581756609       17.7137276307
  H         3.3273455931        6.6612314204       15.7100892237
  C         3.7270403341        8.2317339594       14.5991347861
  H         3.5061939854        8.9111523797       28.7576118513
  H         2.9220543883        9.0868891505       30.3552078488
  C         4.4369695470       10.5101793505       29.9536980141
  H        -3.8452827556        9.3090617673       26.1869781761
  H        -4.2581727881        8.6244788343       27.7271756785
  C        -5.3399301283       10.4550860952       27.1424065050
  N        -1.1238298646       16.4719887485       30.4496704741
  C        -1.6589915438       16.4191123290       32.7412985798
  C        -1.8481936895       14.2517728295       33.9629607789
  H        -1.2448451303       12.5285280657       32.9869508965
  H         6.5227091078       12.5041261098       17.1073237508
  H         5.0306550148       12.3126025335       17.8999107586
  H         5.4092505901       13.8604350627       17.1357708257
  S         3.8931912565        9.8891193823       14.2140913260
  C         3.9068280448        7.3341335550       13.4299051706
  H         4.5295728806       11.3792732827       29.3202562886
  H         4.3065422061       10.8871961948       30.9392021374
  C         5.7619274820        9.6843243470       29.8220858644
  H        -4.9406318479       11.3255540553       26.6559418824
  H        -5.7527770066       10.7737207234       28.0960719681
  C        -6.4826337686        9.6945421834       26.4188672570
  S        -1.0215709294       17.9939134373       30.9546049326
  N        -1.6023416189       17.7722122922       32.4821086210
  C        -2.0360143763       15.7495028369       33.9810264303
  H        -1.9245316195       13.6992545381       34.8609414022
  C         4.2500573365        9.3752157112       12.5819572986
  N         4.2470288914        8.0309283196       12.3792447696
  O         3.7862630487        6.0997554419       13.4883114688
  H         6.5785745605       10.4053329245       29.9072392357
  H         5.8238501567        9.2062440557       28.8814335165
  C         5.9356326936        8.6434667912       30.9367961085
  H        -6.0627428724        9.5188262115       25.4517793016
  H        -6.7965403282        8.7626450001       26.8984934109
  C        -7.6950685317       10.5855707008       26.2480095670
  C        -2.4269327583       16.4966191828       35.0677863205
  S         4.9140349267       10.4526258245       11.3657901464
  C         4.4112442089        7.4227567145       11.0689484076
  H         6.6077337160        8.9499646317       31.7331947222
  H         4.9244755393        8.4850677272       31.4001076813
  C         6.4712945215        7.2525040394       30.5152577258
  H        -7.3189586444       11.5614413480       25.8648403949
  H        -8.1087276080       10.8104003275       27.2173259996
  C        -8.6896320921       10.0135705658       25.1836454351
  H        -2.0994808900       17.5212948765       34.9606991135
  C        -2.8843138129       16.1974542280       36.3140792548
  H         4.8604699351        8.0932888421       10.3093235762
  H         5.1249511444        6.5791398568       11.1552076560
  C         3.0593323310        6.9817616890       10.6430732256
  H         7.5422995854        7.2344140753       30.3196053822
  H         6.0661591275        6.9293022298       29.5238235603
  C         6.2566374926        6.2275842632       31.6128829314
  H        -8.7274792266       10.6618709462       24.2805861708
  H        -8.3603039996        9.0708982921       24.7459359198
  C       -10.1011035756        9.8968410972       25.8736836735
  S        -3.2752176368       14.6557424383       37.0050742059
  C        -2.9347058647       17.3265982257       37.2866925519
  H         2.6696937269        7.5588357468        9.7648511794
  H         3.2091449355        6.0399523209       10.1691715432
  H         2.3186709842        6.8640116768       11.4204758698
  H         7.1534420490        5.6086554651       31.6790280824
  H         5.3192204061        5.5820237507       31.3472805409
  H         6.2184802361        6.5997450145       32.6428416882
  H       -10.0399969166        9.0528975534       26.6664658840
  H       -10.8689768518        9.6621078545       25.1269515706
  H       -10.4581051848       10.7947255098       26.3379716202
  C        -3.5322999430       15.5478318620       38.5106132910
  N        -3.4994560738       16.8370906509       38.4306102168
  O        -2.8042304927       18.4837034346       37.0548662901
  S        -4.0610958669       14.8120525963       40.0888018951
  C        -3.8079545295       17.7645767463       39.4739183887
  H        -3.9661640804       18.8418237426       39.2120214088
  H        -4.7214541017       17.5021498815       40.0056751492
  C        -2.6200022982       17.8838413484       40.4799642579
  H        -3.0379638059       17.9835093431       41.5222545650
  H        -1.9654935750       16.9995669400       40.4268358806
  H        -1.9229751128       18.6949344554       40.1927458202
