352
i=
  H         4.5403601191        1.8911431042       12.8609541917
  C         3.8441692866        2.6690300250       12.7850548140
  H         4.3681744958        3.5678067684       12.7329463066
  C         2.9521293958        2.6249680369       11.4900313995
  C         2.9009365713        2.8205399931       13.9984293835
  C         3.7097327030        2.7610962330       10.1403320411
  H         2.3494329160        3.5755612130       11.4856686905
  H         2.3040376602        1.8212682399       11.5200141762
  H         2.3376144337        1.8877442470       14.1076823366
  H         2.2753380158        3.6615416918       13.8092075653
  H         3.5706224528        2.8128169548       14.8924131675
  C         4.5878580595        1.5598094417        9.8702881004
  H         2.8917274635        2.8987826175        9.4277009709
  H         4.1978369777        3.7037218045       10.2275399907
  C         5.3049432077        1.5889378387        8.4884798327
  H         3.8330681825        0.7738916919        9.7700269016
  H         5.2424257047        1.2920795453       10.7328649951
  C         6.6095040266        2.4587720095        8.5470138740
  H         4.7338141414        2.0419768283        7.6995558260
  H         5.5988525465        0.5743090040        8.0986669510
  C         7.8252601566        1.7692640135        9.2037564348
  H         6.7901720874        2.9343590938        7.6525052883
  H         6.3212215516        3.2770959163        9.2646007272
  C         9.0962766366        2.6969518619        9.2614570812
  H         8.0664110991        0.8603259110        8.6734676667
  H         7.6760826279        1.3966094762       10.2756750138
  C         8.7893397666        3.9852768074       10.0269519095
  C         9.4796595068        3.3984176748        8.0289757238
  C        10.3246119434        1.8471812479        9.8436489479
  C         9.0523925774        5.0510455316        9.2388151586
  C         8.3122832687        4.3058287992       11.3306915029
  C         9.5495614756        4.7462466876        7.9601516330
  C         9.8169806470        2.7399546712        6.8453063993
  H         9.9167862225        1.2190971952       10.6243958412
  H        10.7154364298        1.0604785483        9.1785808592
  C        11.3870593536        2.6809855797       10.5880436208
  S         8.5149014422        6.5258602864       10.0393191320
  C         8.2687554261        5.6667062549       11.5149958517
  H         8.0249352749        3.5148919834       11.9975615424
  C         9.9184656852        5.3106687672        6.7747059127
  H         9.8380074103        1.6619937672        6.8449227981
  C        10.1617363434        3.3334249707        5.6688178370
  H        10.9435088470        3.3656650934       11.3177758560
  H        11.9061757822        3.3436393716        9.8893522253
  C        12.4871750078        1.8301651072       11.2447968874
  C         7.8561644872        6.3479596610       12.7671871122
  C        10.2474452655        4.6727112687        5.5574624318
  H         9.8650173340        6.4059088175        6.7456616752
  C        10.6451167144        2.9445561726        4.4435103296
  H        13.4474338278        2.2900705725       11.3055933432
  H        12.6429817976        1.0031508299       10.6177690720
  C        12.1333095064        1.4194392616       12.6814883935
  C         7.7175696749        7.7288226228       12.9508725168
  C         7.6867015070        5.4620290070       13.9802466337
  C        10.6574993475        5.3208946451        4.2517798429
  C        10.9008246042        4.0306154107        3.5901070872
  S        10.8402075369        1.4575469625        3.6781112477
  H        11.1299546880        1.7658964524       12.9233622462
  H        12.1309635041        0.2861239466       12.6567797346
  C        13.0901376149        1.8582800027       13.7461178463
  N         7.9558888388        8.7056374707       12.0402123226
  C         7.4463106282        8.2418452852       14.2102648198
  C         7.2612962659        6.0239551024       15.2103833005
  H         7.9598086471        4.4328358619       13.9351590003
  C        11.9506420830        6.2600515707        4.4713104085
  C         9.5924696683        6.1750546148        3.5796124069
  C        11.3863459092        3.6068635332        2.3230029916
  C        11.3925587507        2.2323690915        2.2414731052
  H        13.1203397804        2.9580220681       13.7681695709
  H        14.0550528041        1.5192856315       13.5065174906
  C        12.7414660865        1.2412040969       15.0770225495
  S         7.8841359782       10.1664572744       12.7862113744
  N         7.4147917316        9.6433888816       14.1832587932
  C         7.0740743656        7.4986873018       15.3237106018
  H         7.1863154253        5.2967126480       15.9645617344
  H        11.6335090813        6.9431423826        5.2384548674
  H        12.0285818845        6.8350588832        3.6164120793
  C        13.2864600629        5.6803415706        4.8801433162
  H         9.2578146418        6.9693848516        4.2624573128
  H        10.0463756268        6.6848056887        2.6963352087
  C         8.3414310348        5.5131839278        3.0050890555
  H        11.7600935871        4.2088484817        1.4990486632
  C        11.6489662901        1.4656403646        0.9898844442
  H        11.6881705287        1.1515159891       15.2998142774
  H        13.0374351112        0.1597021794       14.9302288159
  C        13.3946676288        1.9128462318       16.3275880628
  C         6.8554858229        8.1169807943       16.5777972241
  H        13.1636304193        5.2407927248        5.8338065631
  H        13.6410754476        4.8971374570        4.2098316486
  C        14.4431257211        6.6998774745        5.0699724714
  H         7.9543134701        4.8903103505        3.8246218964
  H         8.6723753159        4.9770556622        2.1247482835
  C         7.3347675158        6.4808704732        2.6233296854
  C        11.8383914225        0.0593402933        0.8852641801
  C        11.9691164211        2.2609415749       -0.2526816632
  H        13.3286420794        3.0343066020       16.1782962449
  H        14.4642438603        1.7190763503       16.3249984578
  C        12.6605640369        1.4975899695       17.6454373771
  H         6.9721852421        9.2296624575       16.5485681058
  C         6.4626566671        7.6383449815       17.8560713406
  H        14.2530769484        7.3857968197        5.9173999289
  H        14.4770990921        7.2744605975        4.1077544823
  C        15.8275947285        6.1261002732        5.1526168687
  H         6.9661204789        7.1788784401        3.3815894646
  H         7.8472008835        7.0448763591        1.8310738345
  C         6.1472343926        5.7372399918        1.9907858711
  N        11.7161201181       -0.8909716923        1.9288623115
  C        12.2703235696       -0.5035535293       -0.3177766109
  C        12.1780342385        1.6485942615       -1.4450828747
  H        11.8758534524        3.3104430501       -0.2902173396
  H        13.3773403813        1.2640009806       18.4410416647
  H        12.0345216896        0.6599395291       17.4977902757
  H        11.9679506397        2.2865168473       17.9168541469
  S         6.1379190174        6.0165068132       18.3353727994
  C         6.3519395507        8.6201411983       18.9503155535
  H        15.7132320198        5.1192760132        4.7946212987
  H        16.6368655514        6.5852583212        4.6698457375
  C        16.1343207849        6.1935043383        6.6269964802
  H         5.7129462830        5.2074726495        2.8163522330
  H         6.5146616179        4.9657375726        1.3849732717
  C         5.1791311590        6.6397321522        1.1605492433
  S        11.8393839385       -2.4121989372        1.2189446112
  N        12.4568521029       -1.8970797579       -0.1942624705
  C        12.5983178014        0.2252012225       -1.4579947913
  H        12.1971667709        2.2610685685       -2.3284907454
  C         5.7364623679        6.6294554039       19.9012433026
  N         5.8506684790        7.9739138144       20.0022535719
  O         6.5938621457        9.7807859832       18.8173730741
  H        16.2435389473        7.2587134411        7.0029389087
  H        15.3207000823        5.8073517974        7.2788605891
  C        17.3460156333        5.3500965477        6.9530947651
  H         5.5707798704        6.7485839972        0.1432828663
  H         4.3922738651        5.8852237666        0.9719813024
  C         4.6361280930        7.8738793364        1.8118619291
  C        12.8213806463       -0.5379194794       -2.7255234567
  S         5.1801982149        5.7270024745       21.2152181721
  C         5.7780065141        8.7273517078       21.2469130733
  H        17.4072849649        5.1264406899        8.0514348709
  H        17.4935610236        4.4399584883        6.3562869799
  C        18.5998065453        6.1419306242        6.6230990583
  H         5.3414807950        8.5083889248        2.3120504467
  H         4.0283797057        7.4001295576        2.5423900726
  C         3.8452055042        8.8090353629        0.9265582386
  H        13.0081645050       -1.5709457778       -2.7267434974
  C        13.3115306688       -0.0619609865       -3.8985767175
  H         5.1981251833        8.3587679330       22.1143859292
  H         5.3835113621        9.6917128186       21.1398686100
  C         7.2381270491        8.7590561923       21.8350311153
  H        18.5939336782        6.9707814113        7.2669397355
  H        18.6550258791        6.6075905337        5.6338665753
  C        19.8774593407        5.4059912067        7.0409445009
  H         3.8240889862        8.3812313123       -0.0653119780
  H         2.7890347521        8.9630368044        1.1338264312
  C         4.6267016166       10.0905381947        0.6200370110
  S        13.5226590890        1.5824340384       -4.3280250145
  C        13.6332441717       -1.0921556038       -4.9660985985
  H         7.9019966634        9.5882832718       21.4943136819
  H         7.7526849851        7.8381324273       21.6280862077
  H         7.1188525373        8.9940594506       22.8600516080
  H        20.8139715840        5.9322419567        6.8459554097
  H        19.8601045868        5.2817299444        8.1024728639
  H        19.9909157372        4.5217537600        6.4917718717
  H         4.6695569968       10.8828206297        1.3484358780
  H         5.6461077453        9.8036959948        0.3482600407
  H         4.1829099459       10.5761320260       -0.3109793505
  C        14.0669545765        0.8619561869       -5.8393144927
  N        14.0630909350       -0.4311459922       -6.0094942393
  O        13.5629045630       -2.3584759035       -4.8570360019
  S        14.6220694300        1.8953473880       -7.2016132229
  C        14.4651421156       -1.2150985009       -7.2284836351
  H        14.5895599787       -2.2788879133       -7.0372803396
  H        15.4720620371       -0.9318274253       -7.5338575859
  C        13.3583494249       -1.1016371485       -8.2443504606
  H        13.6326900570       -0.5458906558       -9.1084663415
  H        12.3697363430       -0.6260994104       -7.8601970505
  H        13.0084794051       -2.0625072856       -8.6342927754
  H        -2.6627863432       15.5542569766       16.6009934782
  C        -3.1512766307       14.6252791226       16.4289624093
  H        -4.1805682399       14.8056031173       16.6430390111
  C        -2.7165472201       13.6263384471       17.4286951129
  C        -3.0807013428       14.1303503387       15.0139456268
  C        -3.0193011392       14.1284019958       18.8859672481
  H        -3.2403552809       12.6662667903       17.2342062691
  H        -1.7195184024       13.2298414419       17.3293745125
  H        -2.8479323066       14.8442667206       14.2824988093
  H        -2.3145366572       13.4100478444       14.8092862511
  H        -4.0939132991       13.6904148125       14.6750199698
  C        -2.0373443384       13.5596110877       19.8870344665
  H        -4.0914209521       13.9771574343       19.1896738310
  H        -2.8974186951       15.2095834667       18.9184460800
  C        -2.5097835230       13.4824135774       21.3741987886
  H        -1.5474756343       12.6543924822       19.5407260407
  H        -1.1264217644       14.1779382686       19.8695376759
  C        -1.4474835174       12.9462222927       22.3237054972
  H        -3.4851167204       12.9014048366       21.4180209728
  H        -2.8108341873       14.4642086424       21.6458535859
  C        -0.2566288225       13.9267457905       22.4816125537
  H        -1.7236603805       12.5614594504       23.4137141722
  H        -1.1734225793       12.0941222769       21.7242326637
  C         0.8958988798       13.2080724874       23.2034850625
  H         0.2335685477       14.2281306126       21.5578849352
  H        -0.5127898053       14.7638877165       23.1336248011
  C         1.3178696773       11.8543046296       22.5111885279
  C         0.5559985866       12.5418228092       24.4766495765
  C         2.1391456543       14.1388680734       23.3613188849
  C         1.0741598011       10.8003730290       23.3789377782
  C         1.8724407187       11.4972870756       21.2705431897
  C         0.6972077328       11.2144523165       24.6103698175
  C         0.1854754022       13.1650074111       25.6376064230
  H         2.3921008238       14.6427627645       22.4098541025
  H         1.8624319564       14.9440927350       24.1143760539
  C         3.3696350169       13.4273263599       23.9642154716
  S         1.4100497798        9.2863354029       22.6263368761
  C         1.9080041649       10.0995046675       21.1853789497
  H         2.1751640395       12.1782696995       20.5121773558
  C         0.4133322641       10.6126388394       25.7656502359
  H         0.2801696467       14.2636791804       25.6484624638
  C        -0.1029112701       12.5761431295       26.8480123456
  H         3.4686522819       12.3809622060       23.6957628695
  H         3.2169665980       13.4416393594       25.0546381750
  C         4.6969001005       14.1393842551       23.8765476127
  C         2.4156443285        9.4104243301       19.9176882063
  C         0.0026939699       11.2441982703       26.9680251329
  H         0.4212443665        9.5159694656       25.7743824510
  C        -0.4493992712       13.0277137715       28.0813837860
  H         5.3766312051       13.5661042543       24.5748633466
  H         4.6101071064       15.0924326476       24.3756097908
  C         5.2852895616       14.1012956880       22.4694405843
  C         2.3772426477        8.0148828918       19.7333713241
  C         2.9541288565       10.2617663541       18.8947456569
  C        -0.4615897148       10.5417135908       28.2285328539
  C        -0.7450354434       11.8600186220       28.9005242457
  S        -0.8729460681       14.4819319735       28.8846424559
  H         6.2052331203       14.6495893392       22.3464176789
  H         4.6102475502       14.5638350477       21.8248691619
  C         5.5244377980       12.8122464128       21.8026686982
  N         1.8653025733        7.0813063709       20.6113129670
  C         2.7380483228        7.4443569276       18.5465758233
  C         3.3531146350        9.6659511038       17.6880387224
  H         3.3795197771       11.2083065352       19.0619730687
  C         0.6760668759        9.7769726596       28.9919997866
  C        -1.7612904545        9.7066174858       28.0199997561
  C        -1.0698420279       12.2382697027       30.2535786932
  C        -1.1198155209       13.6227605763       30.3814505965
  H         6.5682975875       12.5947000490       22.0737694939
  H         4.9778345179       12.0142456748       22.2262462126
  C         5.4478801252       12.8318663421       20.2649655418
  S         1.9990747225        5.5902244128       19.9562836390
  N         2.5904182504        6.0601549633       18.4691820024
  C         3.1244852925        8.2771723502       17.4434234855
  H         3.9109155139       10.1211699173       16.9267690589
  H         1.0318894926        9.0209238076       28.3114194948
  H         0.1441883399        9.4259022236       29.8455909339
  C         1.8794258239       10.6005859698       29.4335947657
  H        -1.5767513129        8.8966957318       27.3138671145
  H        -2.0059511500        9.1012111287       28.9605002260
  C        -2.9195839212       10.5162514023       27.5677200489
  H        -1.3546989788       11.4571757040       30.9783878305
  C        -1.5356858416       14.3188224580       31.6607038865
  H         4.5335032853       13.2730336534       19.9818927907
  H         5.4617219323       11.7796118083       19.9727602583
  C         6.6879422317       13.4393714364       19.5940256158
  C         3.3704542743        7.6213831827       16.1717545248
  H         2.3115256669       11.0175893246       28.5181506049
  H         1.6482423257       11.4079972176       30.1467158425
  C         2.8373941440        9.7129434288       30.1116845956
  H        -2.5755754735       11.1226997810       26.7461159989
  H        -3.1415529052       11.2942274995       28.3050308786
  C        -4.2892125750        9.8106771230       27.2354629320
  C        -1.5666061432       15.7040351557       31.9170159747
  C        -1.8444627224       13.4821329388       32.9051651715
  H         6.7594128995       14.4078555858       20.0335576015
  H         7.4958178852       12.7710099358       19.8692592612
  C         6.6962032873       13.4601729165       18.0771579767
  H         3.2935181150        6.5690454017       16.1155653388
  C         3.7418883988        8.0882618820       14.9225395332
  H         3.2084875765        9.1239662176       29.2991720131
  H         2.3358013240        9.0089467379       30.8374698575
  C         3.9355781459       10.3763986127       30.8494556268
  H        -4.1220992267        8.9793297815       26.6030203319
  H        -4.8081554585        9.4254090864       28.1371308066
  C        -5.3410889919       10.6362670374       26.4110548743
  N        -1.3091163497       16.6651011877       30.9891247992
  C        -1.8973420237       16.2450333873       33.1186024754
  C        -2.2635442339       14.1257798312       34.1162314705
  H        -1.8570423281       12.4045560830       32.8889596511
  H         7.4636367924       14.1072436668       17.6580471193
  H         6.9988972369       12.4342367844       17.7717102663
  H         5.7912876747       13.8001168919       17.6303721919
  S         4.0623757765        9.7212549436       14.5011097533
  C         3.9006881138        7.0967219549       13.8488765866
  H         4.1544543598       11.3184591363       30.5227077543
  H         3.5295426559       10.5391730027       31.8022009675
  C         5.1239494376        9.4506296957       30.9429213090
  H        -4.8508734176       10.9925114545       25.5169310759
  H        -5.6360066010       11.5507346863       26.7984057467
  C        -6.5140319504        9.9050085763       25.8786671742
  S        -1.6451634556       18.1563093512       31.6077646119
  N        -1.9418123781       17.6543896909       33.0932544691
  C        -2.3650248663       15.5881260925       34.2909079715
  H        -2.4855420485       13.4660528869       34.9443669072
  C         4.3765152952        9.0703191984       12.9059642105
  N         4.3173721423        7.7367435962       12.7314078185
  O         3.8946011790        5.8584726831       13.9030567856
  H         5.8017190062        9.8465469439       31.7057270176
  H         5.5800132275        9.5480197970       29.9276145257
  C         4.7451116253        7.9754391625       31.2878686770
  H        -6.2971038388        9.1719259743       25.1287855556
  H        -6.8100569683        9.3803451001       26.7944025153
  C        -7.5651375925       10.7715966140       25.2187077916
  C        -2.7061354975       16.3506174717       35.4592479036
  S         4.7168639191       10.2205533713       11.6094937000
  C         4.5547582548        7.1121285103       11.4350674765
  H         4.1571150197        7.8859481989       32.1735389541
  H         4.3252687725        7.4061210478       30.3808907639
  C         5.9440154224        7.2118676369       31.7382239810
  H        -7.1774285866       11.4143164147       24.3722534291
  H        -7.9185139197       11.5278073392       25.8441741365
  C        -8.7308099846       10.0009095864       24.7314729011
  H        -2.3639510216       17.3624573122       35.4530701782
  C        -3.1965822440       16.0214035019       36.6813999155
  H         5.1954599662        7.6867284260       10.7813419205
  H         5.1113835704        6.2223412735       11.6474395692
  C         3.2291029889        6.9610056091       10.7185810985
  H         5.6842764720        6.4134575201       32.3500099491
  H         6.5635822344        7.7830510475       32.4320775665
  C         6.7043290070        6.6946930197       30.5152170918
  H        -9.1675961828       10.6449276816       23.9896384137
  H        -8.4278843377        9.0612433356       24.2795995593
  C        -9.8024095746        9.8816826917       25.7725443140
  S        -3.8375695792       14.4791874004       37.1183055159
  C        -3.2356717570       17.0301654895       37.8030663092
  H         3.3686792418        7.3213757766        9.6986222554
  H         2.7633864927        6.0332892403       10.6261074933
  H         2.5242219379        7.7208462228       11.0689926296
  H         7.7667313252        7.0078839770       30.7380092566
  H         6.4710223266        7.2395029415       29.5607028402
  H         6.7502096987        5.5353985009       30.4538490185
  H        -9.5188602122        9.5034008633       26.7817154818
  H       -10.5762428092        9.2328297891       25.3789656125
  H       -10.1930792846       10.9047734581       25.8319370035
  C        -4.0452001426       15.1416167523       38.7466709752
  N        -3.8551206236       16.4742365135       38.8734824395
  O        -2.6628521740       18.1094636514       37.8189568895
  S        -4.4586753508       14.2245487530       40.2830750508
  C        -3.8188798508       17.2172013242       40.1315677843
  H        -4.0286455970       18.2570847958       39.8488087982
  H        -4.6650939537       16.8902411873       40.6887533618
  C        -2.6020753481       17.1039702423       40.9999329215
  H        -1.7077043745       17.0453982566       40.3480025985
  H        -2.3692684303       18.0482820335       41.5856097772
  H        -2.6086759953       16.2815623361       41.8324890658
