352
i=
  H         1.7636835789        1.7008333964       12.0966208710
  C         2.7632652973        2.1303460082       12.1908593957
  H         3.4084979108        1.3322618613       11.9422738333
  C         2.8490766623        3.1955850105       11.0652306995
  C         3.0904246157        2.7021306637       13.5970482941
  C         4.2617332364        3.1369470080       10.3583611888
  H         2.6481036822        4.1808849110       11.5427645388
  H         2.0776269163        3.0355217165       10.3652974642
  H         4.1390470685        2.4624031095       13.7728231387
  H         2.5468162099        2.2415978299       14.4421296781
  H         2.8389747357        3.7399569969       13.5890088027
  C         4.4560021254        1.7885787466        9.5736920600
  H         4.3152757542        4.0025094691        9.7143444726
  H         5.1342336607        3.2507439495       11.0758415708
  C         5.2210340095        1.8281739402        8.2116047575
  H         3.4822103242        1.2129247087        9.3666394688
  H         4.9618927032        0.9924495127       10.1433593087
  C         6.4756814738        2.6079396838        8.3963648165
  H         4.7556062606        2.4268749609        7.4434018517
  H         5.5615925192        0.8593052677        7.7865986970
  C         7.6394982657        1.7634044214        8.9807878479
  H         6.6929378557        3.0535500407        7.4438556966
  H         6.2974474732        3.3886916510        9.0944031483
  C         8.9258483058        2.6091471494        9.2064271345
  H         7.9027027074        1.0005316405        8.2525841296
  H         7.4698512540        1.2617110896        9.9266018797
  C         8.5872975377        3.9434586878        9.8888451766
  C         9.4018486054        3.3986915329        8.0450955727
  C        10.0278503866        1.9133619437        9.9685735957
  C         8.9028127424        5.1029611078        9.2198944448
  C         7.9321180344        4.3283480534       11.0863389278
  C         9.4417577454        4.7314858042        8.0060065965
  C         9.8781470741        2.8104544822        6.8670902537
  H         9.5134458528        1.6424207870       10.9076607111
  H        10.3109952053        0.9729490935        9.3809836612
  C        11.3317839247        2.6899680389       10.2755582063
  S         8.6235561643        6.6365838858        9.9617326934
  C         7.9489396000        5.6878246142       11.3100078645
  H         7.5099983678        3.5189430946       11.6742273765
  C         9.8093004505        5.4502257386        6.8838803601
  H         9.9272806770        1.7483096785        6.8720109535
  C        10.2596386324        3.4992164936        5.7565064468
  H        10.9949183264        3.6415927362       10.7024397104
  H        11.7480067851        2.9492380116        9.3142565692
  C        12.2944059432        1.8975776594       11.1215693803
  C         7.5697125173        6.3930975216       12.6268724082
  C        10.2634695370        4.8668740973        5.6878082623
  H         9.6961682264        6.5088072143        6.9251947536
  C        10.7065217507        3.1543043535        4.5207230473
  H        13.3177227032        2.0435202553       10.9433525559
  H        12.2378939870        0.8534548817       10.9732011105
  C        12.1165588511        2.1702770180       12.6435010589
  C         7.7036811452        7.7805175944       12.9642568986
  C         6.9854080960        5.5048649670       13.7127104154
  C        10.7828393319        5.5574906544        4.4484379678
  C        10.9981173680        4.2637397601        3.7035705356
  S        11.0808863818        1.6658698228        3.7619051245
  H        11.7294065233        3.1605075377       12.7470376526
  H        11.2969442776        1.5386809998       12.9717130558
  C        13.4224079209        2.0822158160       13.5536282322
  N         8.1969652475        8.7183489169       12.1384341880
  C         7.4702691052        8.3491988911       14.2276292382
  C         6.8725440570        6.0355148924       14.9529522709
  H         6.7572677633        4.4514049739       13.6018758889
  C        12.0931584762        6.3658571885        4.8308631303
  C         9.7681919600        6.3818773567        3.6963603203
  C        11.5560883242        3.9130696891        2.4575187314
  C        11.5550589671        2.5394178367        2.3338930334
  H        13.7482326420        3.1091513478       13.8949778812
  H        14.2209651350        1.5148524923       13.0603906831
  C        13.0548166177        1.2545822617       14.8033552619
  S         8.2936757794       10.1289300092       12.8345295688
  N         7.6044710667        9.7236280665       14.1962752294
  C         7.0999965589        7.4850834770       15.2683809789
  H         6.4970602282        5.4175267231       15.7325171897
  H        11.8499890645        7.0558327525        5.6610455319
  H        12.5578765231        7.0073744568        4.0698260827
  C        13.2765722357        5.5147664540        5.3932913495
  H         9.3389309812        7.1461893782        4.3412715631
  H        10.3589925120        6.7921160716        2.8898752405
  C         8.5772213478        5.6074280970        3.0718419733
  H        11.7979246872        4.7048758603        1.7894039849
  C        11.8448606932        1.7609431253        1.0224158075
  H        12.4448920677        0.4472884926       14.4627211872
  H        13.9418254604        0.7670542475       15.2712362301
  C        12.4484988397        2.0877954231       15.9278263117
  C         6.9884489854        8.0635944699       16.5632505904
  H        12.9946414609        4.9554994639        6.2697845629
  H        13.3904859799        4.7056948429        4.6615542592
  C        14.5280047163        6.2261815083        5.6760786446
  H         8.0746528698        5.0341205150        3.8804017250
  H         8.8735340186        4.8024834862        2.3278568028
  C         7.6647138887        6.5164145891        2.2971336811
  C        11.9451135212        0.3873668466        0.8916463249
  C        12.1240143024        2.5750526644       -0.2242357710
  H        11.6999566020        1.4397071716       16.4901837968
  H        11.8379044571        2.7620890621       15.3727434035
  C        13.5219842779        2.6401539577       16.8618991497
  H         7.0944841413        9.1624373055       16.5409164883
  C         6.6856949326        7.6321718217       17.8205512290
  H        14.2638070584        6.9019841006        6.4984523048
  H        14.8123953071        6.8070217826        4.8179398941
  C        15.6616075412        5.2635604835        5.9631791625
  H         7.4058805688        7.3657124642        2.9382529666
  H         8.1314360176        6.9250211549        1.3861912824
  C         6.3813821518        5.8131332369        1.8422536393
  N        11.7338537254       -0.5777427621        1.9494290982
  C        12.2803358410       -0.2377480075       -0.3187415243
  C        12.4833430387        1.9464014147       -1.4238427428
  H        12.2612024759        3.5833920024       -0.1783760992
  H        14.3146969462        3.2299151247       16.4173261895
  H        14.0211374239        1.8298896121       17.4653209356
  H        13.1023399617        3.2613597720       17.6506209503
  S         6.4082541405        6.0853984175       18.3161134250
  C         6.6898721153        8.6571114318       18.8551619704
  H        15.3967982890        4.5073733617        6.7091434742
  H        15.9505908272        4.7205936306        5.0809044897
  C        16.8459245867        6.1194837118        6.3408383911
  H         6.1633844418        4.8845332215        2.4582355732
  H         6.4025962404        5.4890135658        0.7823080800
  C         5.2392486179        6.7988606664        1.8499567099
  S        12.1899039211       -2.0148121982        1.3625268326
  N        12.3844350001       -1.6391109332       -0.2097418890
  C        12.5644806131        0.4531668128       -1.5193987754
  H        12.6623031811        2.5774529506       -2.2463456740
  C         6.1515572720        6.8174612341       19.9393227642
  N         6.2621513629        8.1269139504       20.0106632121
  O         6.9411355238        9.8587376490       18.7213548921
  H        17.1681909874        6.7504453035        5.5324733755
  H        16.5889787288        7.0028455657        7.0588247537
  C        17.9727567842        5.2545786300        6.8338733932
  H         4.3430924364        6.2873797429        1.5139405380
  H         4.9312100885        7.0315957540        2.8888583890
  C         5.5236654129        7.9946603323        0.8714467958
  C        12.8211281383       -0.2385955434       -2.7294262636
  S         5.6972264626        6.0368445683       21.3811021685
  C         6.1829641053        8.9430034661       21.2053016442
  H        17.5822544099        4.9060898969        7.7818141202
  H        18.1136631972        4.3652922480        6.2243165844
  C        19.1640341298        6.0781653555        6.9817299599
  H         5.9259933870        7.5559586886       -0.0166316278
  H         6.2747234556        8.6415348632        1.1835889486
  C         4.2544644118        8.8117328209        0.7038818181
  H        12.4724746859       -1.2623137259       -2.7842319163
  C        13.3861101106        0.2122894079       -3.9197458347
  H         5.5185566378        8.5095977657       21.9292920020
  H         5.7185849604        9.9561163810       20.9520728828
  C         7.5980664128        9.3720096744       21.7943804470
  H        19.7268355169        5.8486573908        7.8775509117
  H        18.8160173857        7.1179638421        6.9705629116
  C        20.0429110305        5.9167433215        5.7544546553
  H         4.0287614754        9.0501423221       -0.3823369219
  H         3.4168201570        8.2095579608        1.0817843269
  C         4.3440973573       10.1158011157        1.3187321606
  S        13.8883409148        1.7525027087       -4.3973802631
  C        13.5561588361       -0.8381739632       -4.9663919031
  H         7.4738687917       10.1365902571       22.5244627934
  H         8.4091524567        9.6982968985       21.0587804173
  H         8.0158145103        8.5883896100       22.4073242952
  H        19.5846182870        6.2330733266        4.7869881128
  H        20.9896212946        6.4557360102        5.7719103403
  H        20.3287606792        4.8701827669        5.5994745272
  H         5.1456207700       10.7659597956        1.0398353457
  H         3.3485561345       10.5812632384        1.1086670570
  H         4.4006254403        9.9173415368        2.4028535063
  C        14.2423143268        1.0608935385       -5.9902462616
  N        14.0585058457       -0.2828689600       -6.0931635616
  O        13.0604956713       -1.9388473488       -4.9175430804
  S        14.8650163830        2.0208268435       -7.4068710857
  C        14.1801012679       -0.9812143583       -7.3248534666
  H        14.3511055257       -2.0881610266       -7.1620886305
  H        15.1335073889       -0.6133284457       -7.7628776902
  C        13.0373844325       -0.9086670976       -8.3234670406
  H        12.1945785591       -0.8141027372       -7.7426411647
  H        13.0024783362       -1.9391198633       -8.8024274734
  H        13.1096141169       -0.0359509736       -9.0245242588
  H        -0.3505596039       14.6344212458       15.5012863578
  C        -1.3049143851       14.3768577639       16.0098270251
  H        -1.8044711023       15.3060552992       16.2941151013
  C        -0.9682473284       13.6971117932       17.3736771514
  C        -2.1350400187       13.5523790491       15.0359962867
  C        -1.8537046074       14.1383931057       18.5097252423
  H        -1.1659956019       12.6948120503       17.1647205122
  H         0.0821718596       13.8588802589       17.5686036122
  H        -1.9318819288       12.4664461173       14.9021059277
  H        -3.0614066836       13.6500632133       15.5676962055
  H        -2.2387555551       14.1249925371       14.0761252937
  C        -1.5492617169       13.1576307809       19.6214235050
  H        -2.9047748545       14.0924378611       18.2126024978
  H        -1.6460555763       15.0215427615       19.0248644162
  C        -1.9404434340       13.5131442838       21.0249921231
  H        -1.8840761232       12.1704024353       19.3193561358
  H        -0.4550902610       13.0931652769       19.7206210432
  C        -0.9533265899       12.9466175419       22.0074404861
  H        -2.8567810787       12.9957853553       21.1774630963
  H        -2.0074803957       14.5721678711       21.2316366817
  C         0.3661060965       13.7002073917       22.1759758866
  H        -1.4085164517       12.9369491843       22.9669328912
  H        -0.6767940653       11.9450666704       21.5905520219
  C         1.4840437305       13.0642342506       23.0062295937
  H         0.7801518403       13.9712495936       21.1881163093
  H         0.1680314285       14.6676653101       22.6468545387
  C         1.9789047577       11.7404136477       22.3978539564
  C         0.9341850401       12.2637833212       24.2606921371
  C         2.6259673031       14.0882117102       23.3585311420
  C         1.7071834342       10.6081877227       23.1844253749
  C         2.7114156582       11.3635450360       21.2591714281
  C         1.0670561155       10.8934365608       24.3501304746
  C         0.4539627469       12.7666676193       25.4035457105
  H         2.7957314869       14.7867450569       22.5557113801
  H         2.3370164584       14.6683313508       24.2003975428
  C         3.9756989221       13.4891702984       23.8778148655
  S         2.1851164502        9.1799029615       22.5147044492
  C         2.6473513194        9.9855051844       21.0527022765
  H         3.1676824409       12.1715082326       20.7103333603
  C         0.6471493145       10.1990910243       25.5128682218
  H         0.2926330346       13.8084148822       25.2874701207
  C         0.0463040039       12.1218614713       26.5368268798
  H         4.4294631586       12.9981820310       23.0265921165
  H         3.8975853730       12.7067169562       24.6289531351
  C         4.9641048310       14.5903539776       24.2640572467
  C         2.9720364831        9.2781595425       19.7926002629
  C         0.1404381573       10.8176368525       26.6350796560
  H         0.8567774130        9.1398506248       25.6533965587
  C        -0.4256220673       12.4902795159       27.7698511506
  H         5.6928769705       14.1341908783       24.9415606546
  H         4.3924166741       15.4433886860       24.7063698347
  C         5.8022179784       15.1617140543       23.0440892614
  C         2.8948629800        7.9006468484       19.4166811675
  C         3.3333486551       10.1844373379       18.6575431226
  C        -0.2730938156       10.0635923820       27.8919304409
  C        -0.5835292071       11.3888802557       28.6065574385
  S        -0.7246211814       13.9739542205       28.5600938570
  H         6.2770734756       16.0452965379       23.3474046094
  H         5.1188734818       15.4030173698       22.1986507811
  C         6.8715462517       14.2787397770       22.4477575785
  N         2.4662615700        6.8549957442       20.3192701475
  C         3.1830781260        7.4684307679       18.1485589920
  C         3.5535230112        9.7642778295       17.3629089085
  H         3.3488009427       11.2843183790       18.7930979066
  C         0.7935524140        9.2672476925       28.6055359814
  C        -1.5282205660        9.3011857102       27.5186301408
  C        -0.9655615086       11.8141120088       29.8623476220
  C        -1.1689265959       13.1408640900       29.9966059394
  H         7.8574635561       14.7870560383       22.5604281824
  H         6.9067294524       13.4598889524       23.1272199597
  C         6.5329521170       13.7133103433       21.1016105425
  S         2.5965851072        5.4394074361       19.5361005774
  N         2.9706828135        6.0549101640       18.0476752378
  C         3.5801717894        8.3129658767       17.1090419826
  H         3.6826173058       10.4746494411       16.6462669683
  H         1.0382265310        8.2544197189       28.1874648929
  H         0.3540440338        8.9483870599       29.6187249779
  C         1.9922654518       10.1361294367       28.9314088366
  H        -1.3330002587        8.6758533776       26.6736740516
  H        -1.7407186483        8.6385292624       28.3616967188
  C        -2.7802897735       10.2619059480       27.3275259510
  H        -0.9643501074       11.1062780391       30.6930327631
  C        -1.4406150563       13.8485372570       31.3122228126
  H         5.9778273604       14.4105618171       20.4856002413
  H         5.8018891903       12.8971262072       21.2182844034
  C         7.6997385876       13.1987198774       20.2665967235
  C         3.6400074350        7.6870753302       15.8254602255
  H         2.2927917208       10.5965601232       28.0426946658
  H         1.7509310376       10.9468524646       29.6718563071
  C         3.0950115997        9.2218029280       29.5652701382
  H        -2.5880072312       11.0418870811       26.6303643023
  H        -3.1045739401       10.7239567232       28.2687889529
  C        -3.9270913687        9.3489806325       26.8891090150
  C        -1.5265294541       15.2597640072       31.4315029336
  C        -1.6426472273       13.0732332008       32.6327753961
  H         8.6221096172       13.7443135822       20.5617703108
  H         7.9019857926       12.0926971414       20.5729852662
  C         7.6142730181       13.3515053232       18.7600349345
  H         3.5215242144        6.6228287874       15.7829067994
  C         3.9824139548        8.1383727129       14.5799011516
  H         3.3028760168        8.5267597919       28.7789490642
  H         2.6842729151        8.6085168144       30.3878698828
  C         4.3528776526        9.9272664683       29.9911774859
  H        -3.5235732499        8.8719095402       25.9937183651
  H        -4.0748483298        8.7208013638       27.7631855201
  C        -5.1761909853       10.1701361404       26.6094871054
  N        -1.3434259380       16.1422902533       30.3880824678
  C        -1.9221466465       15.9258102388       32.5853992043
  C        -1.9215747790       13.7668469248       33.7995717769
  H        -1.6775208998       12.0121830468       32.7662608405
  H         8.0743314943       12.5809882430       18.2326672967
  H         6.5726075956       13.2092862237       18.3617498211
  H         8.0927792558       14.2347368631       18.3984309900
  S         4.4147750092        9.7794146952       14.1003249626
  C         4.0607007138        7.1909690046       13.4348547240
  H         4.5379186230       10.8074757187       29.3243409458
  H         4.1472390771       10.3835198588       30.9920167540
  C         5.6618821462        9.1106603962       29.9430829488
  H        -4.8818682389       10.8763357997       25.8675347906
  H        -5.3144149736       10.7399780946       27.5386672534
  C        -6.3474780498        9.3708075739       26.0277597967
  S        -1.5272622050       17.6511387578       30.8957357889
  N        -1.9331779993       17.3199687668       32.4055631759
  C        -2.1033678299       15.2508810645       33.8436923312
  H        -2.0819655925       13.2465488284       34.7229750633
  C         4.4834542115        9.1641045990       12.4441038410
  N         4.4908911114        7.7867416101       12.3526766222
  O         3.8296387131        5.9776976593       13.4731384141
  H         6.5549778883        9.7335190224       29.7901450355
  H         5.7170229406        8.3593790770       29.1741340896
  C         5.8521124977        8.3357593844       31.2539038892
  H        -6.0566583805        8.7402228549       25.2405591112
  H        -6.8732768119        8.6947972208       26.6883834101
  C        -7.4606096134       10.1957469856       25.2659253642
  C        -2.4103145605       16.0561610581       34.9474502949
  S         4.9493253130       10.0783084138       11.0474121950
  C         4.6287804125        7.1005976311       11.0603137517
  H         6.6914972960        8.8122860969       31.7667627257
  H         4.9077248215        8.4069578556       31.8453294918
  C         6.1532595073        6.8564327192       31.0325502890
  H        -7.3872124226       10.0062193468       24.1976294593
  H        -7.2924601046       11.2643001551       25.4529966690
  C        -8.9061021154        9.9703199936       25.6787083858
  H        -2.3789137034       17.1157779646       34.9029749859
  C        -2.8899676690       15.7388722661       36.2031019467
  H         5.4204854792        7.5288564022       10.3978165722
  H         4.9397159898        6.0646615882       11.2155314787
  C         3.2894694584        7.2500803649       10.4028790226
  H         7.1440612342        6.7317779826       30.6025722370
  H         5.5135666472        6.4252745109       30.2722163459
  C         5.9350873084        6.0243601384       32.2628249195
  H        -9.5147680978       10.2729596624       24.8048145586
  H        -9.1589984202        9.0382950927       25.9985750123
  C        -9.3921101135       10.8346398097       26.8386691866
  S        -3.4224967936       14.1896953514       36.6836187681
  C        -2.9694095535       16.8363428894       37.2222285900
  H         3.3416572639        6.9112155921        9.3891497062
  H         2.5127094867        6.5795275849       10.7975868181
  H         2.8660024419        8.2453038356       10.4752265734
  H         6.5527277012        5.1092440030       32.1935097872
  H         4.8983092294        5.6846166602       32.2549694174
  H         6.1899774261        6.5369213283       33.1996797100
  H       -10.3636671265       10.5744543100       26.9766920761
  H        -9.4752569398       11.8765103204       26.5471872171
  H        -8.8010357385       10.6778447611       27.7646522341
  C        -3.8784254597       15.0172642587       38.1666058149
  N        -3.5741170682       16.3516318382       38.2952330333
  O        -2.6511712463       18.0144530719       37.0032452355
  S        -4.5820410020       14.1902474324       39.5346925048
  C        -3.8336222150       17.2409059925       39.4600659927
  H        -4.0505733407       18.2622052439       39.1299666887
  H        -4.7494816286       16.9474451103       39.9378794888
  C        -2.6306798647       17.2040203370       40.3715633708
  H        -2.8916178694       17.7782791043       41.3069232935
  H        -2.3146342789       16.1709397020       40.6205296088
  H        -1.7781915720       17.6692336490       39.8683343601
