352
i=
  H         4.5417271818        1.1930401497       13.0082170253
  C         3.9312786157        2.1142729956       13.1590544140
  H         4.6783326500        2.8647434496       13.2116690313
  C         2.9819962332        2.2973666516       11.9413006769
  C         3.2010117434        1.9979107976       14.4918338574
  C         3.7387874198        2.6839872742       10.5998798630
  H         2.4861187357        3.1361979319       12.2676307195
  H         2.3603819472        1.4672869623       11.7407451395
  H         2.4693632433        1.2258737359       14.4418714987
  H         2.7285682463        3.0030497025       14.6374381051
  H         3.8951094623        1.9055164169       15.3520171843
  C         4.3184290605        1.4722197550        9.8933200463
  H         3.2082488738        3.3865971333        9.9598024163
  H         4.6988212419        3.2316161832       10.8761597138
  C         4.9939301131        1.7625885595        8.4918997430
  H         3.5956601274        0.6542508134        9.7537549537
  H         5.0292680883        0.9613224993       10.5592835428
  C         6.2189443755        2.6543506692        8.4816480742
  H         4.2747373513        2.1115044979        7.7883743884
  H         5.4365191070        0.8843461349        8.0852726187
  C         7.5278288902        1.9175952353        8.9261147105
  H         6.3292772048        3.1738861666        7.5637833262
  H         6.1919498535        3.4181873766        9.3110184873
  C         8.7474460928        2.7886077758        9.1753431519
  H         7.8635782384        1.1265507944        8.2219247349
  H         7.3294205871        1.3592127461        9.8011710281
  C         8.4373484078        4.1009354650        9.8527993985
  C         9.3146352641        3.4497743686        8.0215088118
  C         9.8212854014        2.0752277077       10.0242388247
  C         8.9090798103        5.1915019391        9.1866143638
  C         7.8928778286        4.4696594320       11.1055803876
  C         9.3874108809        4.7800130486        7.9612566318
  C         9.8245083987        2.8453740111        6.8400198006
  H         9.3660437948        1.7551907484       10.9142124779
  H        10.2372705184        1.1485903073        9.5389053614
  C        11.1164487283        2.8914039695       10.3621013349
  S         8.7609267007        6.6851628697        9.9746972380
  C         8.1060758649        5.8464002869       11.3367111645
  H         7.3635507938        3.6683417627       11.6370745399
  C         9.8966757889        5.3837290418        6.8166802606
  H         9.7231550798        1.7842243673        6.8026212403
  C        10.2579511756        3.4729487265        5.7031344962
  H        10.9513183613        3.7305255823       11.0532912275
  H        11.5109181761        3.3120447867        9.4332945991
  C        12.2131797109        2.0560997761       11.0557788293
  C         7.5985229440        6.6059787135       12.5684586603
  C        10.3192849032        4.8325434375        5.5772406757
  H         9.9695937479        6.4467559125        6.8290096820
  C        10.7466293597        3.0037339890        4.4858062230
  H        13.1567256518        2.6056329737       11.1019313266
  H        12.4394398515        1.1513656516       10.5252013758
  C        12.0338258629        1.7857862236       12.5857907804
  C         7.7391479799        7.9750926683       12.9082700735
  C         7.0500590689        5.7324858512       13.6225816534
  C        10.8561325570        5.4420005251        4.3325157153
  C        11.0504317422        4.0649160979        3.6871319820
  S        11.0659615054        1.5022762782        3.7713878851
  H        11.1729493875        2.4195816331       13.0722836822
  H        11.8379584831        0.7353720140       12.8239659041
  C        13.2226664354        2.2159709981       13.4491516340
  N         8.3367114699        8.9900990524       12.1200962445
  C         7.5187422296        8.3926969267       14.1689490386
  C         6.7097171554        6.2087957957       14.8538935687
  H         6.8916131559        4.6614649069       13.5140314742
  C        12.1824992892        6.1816250063        4.2360040675
  C         9.7390035903        6.1505603603        3.5230978073
  C        11.6623963975        3.6339183431        2.4636814226
  C        11.5029116639        2.2918452558        2.3323133404
  H        13.0919966642        3.2832488123       13.5285984400
  H        14.2291968940        2.1562906249       13.0497221771
  C        13.2707829709        1.6150643022       14.8801243206
  S         8.3149271300       10.3417201644       12.9169625635
  N         7.6530904461        9.7449359237       14.2829374068
  C         6.9975730994        7.6208251889       15.1698263353
  H         6.3408088055        5.5008222996       15.5714587846
  H        12.1134527677        7.0880827099        4.7826435875
  H        12.4533968767        6.4030845429        3.1838317924
  C        13.4062635259        5.4239438094        4.8600952280
  H         9.3630773632        6.8962592820        4.2197468702
  H        10.0446051319        6.6498723288        2.6432974890
  C         8.5535176769        5.2960484416        3.0185751009
  H        12.0040822031        4.4132722783        1.7329314965
  C        11.8114888474        1.5429908059        1.1189429082
  H        13.1678302246        0.4721672495       14.9429528020
  H        14.2366595346        1.8799710145       15.1995909837
  C        12.2477797341        2.3167304393       15.7664036848
  C         6.8219835889        8.1859290506       16.4895202713
  H        13.0648951627        5.0536068951        5.8306438712
  H        13.5441896137        4.5341561696        4.2755741631
  C        14.6278646750        6.3493359547        5.1499431279
  H         8.2274525880        4.5392186795        3.7529493270
  H         8.7942804016        4.7913607444        2.0486038170
  C         7.3809651947        6.2546479814        2.6684916311
  C        11.7593155256        0.1918109673        0.9368762519
  C        12.1957814473        2.2241046517       -0.1585179218
  H        11.1953883158        2.0505001892       15.7692278673
  H        12.0325330027        3.2465732076       15.3024734196
  C        12.8137007186        2.5639941023       17.1576583719
  H         7.2364055050        9.1572801416       16.6156618557
  C         6.5113805545        7.7412189079       17.7352998594
  H        14.2634957791        7.2055638684        5.6832027508
  H        14.8960906518        6.7747621165        4.1182453119
  C        15.7273296293        5.4407880169        5.8247506645
  H         7.2291915050        7.0334518436        3.3480787235
  H         7.6297707468        6.7452323874        1.6887148658
  C         6.1330596793        5.3555192492        2.5221295265
  N        11.4044918771       -0.6330456348        1.9852371963
  C        12.1689877948       -0.5491170032       -0.1921292040
  C        12.6429467566        1.5559289215       -1.2953558362
  H        12.1303471233        3.2904702441       -0.0836570814
  H        13.6096281494        3.3436823177       17.0984320586
  H        13.3404506864        1.7324848605       17.5125469061
  H        12.2029621296        3.0222675936       17.9119092855
  S         6.1559368254        6.1435926156       18.1511448754
  C         6.4023832369        8.7281515973       18.8466621171
  H        15.1755857448        4.8239122778        6.4980483227
  H        16.1114909062        4.7675245867        5.0660145289
  C        16.8690501311        6.2681704835        6.5318803366
  H         5.6525058689        5.2307085382        3.5309824850
  H         6.4657341038        4.3939421343        2.2287306828
  C         4.9709736935        5.9171796070        1.5602249838
  S        11.5330580341       -2.1644322871        1.4920843520
  N        12.1143757752       -1.9063007811       -0.0209263359
  C        12.7274398317        0.1117427530       -1.3219877265
  H        12.9303110244        2.1504279393       -2.1148451826
  C         5.9168945845        6.7051520262       19.7255073556
  N         5.9572255257        8.0498197201       19.9536031133
  O         6.5696652244        9.9104415319       18.7532089952
  H        17.2945767017        6.9717087335        5.8294020682
  H        16.4375155785        6.9384155582        7.2548092555
  C        18.0022120869        5.3797295507        7.1195185585
  H         5.2677405524        5.8460627728        0.5535640448
  H         4.1159747206        5.2592008177        1.6811809974
  C         4.4365053408        7.3548574175        1.9572163307
  C        13.0440181327       -0.6112169711       -2.4742393394
  S         5.4924846225        5.6546895794       20.9956548941
  C         5.8845133860        8.8093269772       21.2303412391
  H        17.5786913072        4.9179079390        8.0028646005
  H        18.1873807104        4.5606601219        6.4677689758
  C        19.2867509493        6.1147656320        7.4598057978
  H         5.2035205893        7.7164219202        2.6255592447
  H         3.5317059950        7.2680381887        2.5728695086
  C         4.2850536772        8.2922980637        0.7526247347
  H        12.5571333807       -1.5613582067       -2.5713702473
  C        13.6171179579       -0.2730918564       -3.6948258342
  H         5.2726646366        8.1860981965       21.9256512143
  H         5.5297646406        9.8642020064       21.0935000589
  C         7.3224305559        8.9607442905       21.7956669489
  H        19.9289577597        5.5868277872        8.2015757398
  H        18.9866328145        7.1279593363        7.7810040762
  C        20.1096806262        6.2271341735        6.1648517088
  H         5.1840952342        8.1805335888        0.1587284588
  H         3.4036805989        8.0948986161        0.1259594767
  C         4.1781873023        9.7301834998        1.1696910249
  S        14.1109707101        1.2682239021       -4.2133361415
  C        13.7321673692       -1.3269602807       -4.7740002557
  H         7.7900072550        9.8578694790       21.3582358466
  H         8.0226341389        8.0902838970       21.7047360361
  H         7.2265890013        9.1588151478       22.8338814571
  H        21.0775306243        6.4092600771        6.3596966436
  H        20.1214078854        5.2048674943        5.7066732333
  H        19.5760650974        6.7992471385        5.4932466068
  H         4.4335121943       10.4629330209        0.4018727377
  H         3.1457403512       10.0787027625        1.3839441580
  H         4.7655859947        9.8676711918        2.0398084202
  C        14.5304097198        0.5046100224       -5.8125264058
  N        14.2468355004       -0.8431277415       -5.8720144891
  O        13.3742559951       -2.4640303796       -4.6479856844
  S        15.0447830299        1.3934444496       -7.2657347873
  C        14.3024932519       -1.6397280470       -7.0933620616
  H        14.4709175028       -2.6869984569       -6.8088046884
  H        15.0875450709       -1.2849052103       -7.7614833597
  C        13.0569676697       -1.4708955629       -7.9844853927
  H        13.1823837034       -0.6495330317       -8.6826473033
  H        12.1612690480       -1.3786296926       -7.3923582731
  H        12.9197499199       -2.3706046760       -8.4965812436
  H        -3.3110008880       14.9644348262       16.6835362454
  C        -3.0899261255       13.9095562606       16.7626276688
  H        -3.9184727166       13.3671066640       17.2069657748
  C        -1.7633347753       13.6972127859       17.5012343591
  C        -2.8833269009       13.3300837170       15.4340934695
  C        -1.7575409818       14.1694778044       18.9588009253
  H        -1.3940899975       12.7125339959       17.4410665070
  H        -1.1124175656       14.4151801024       16.9671890003
  H        -2.2777237333       12.3938914085       15.5520934674
  H        -3.7669306293       13.0319369268       14.9850684922
  H        -2.3560732146       13.9941323178       14.7008640798
  C        -2.4621097899       13.0911364763       19.8459232008
  H        -2.0931703181       15.1418346271       19.1126575424
  H        -0.7359314261       14.1948348072       19.2813137459
  C        -2.4981194342       13.3184236013       21.3164879831
  H        -3.5239171749       13.0224712741       19.5836420125
  H        -2.1123033742       12.0714232981       19.5799375669
  C        -1.3677634321       12.6790661501       22.1461475894
  H        -3.3155365314       12.7750975259       21.7401122163
  H        -2.7406068163       14.3886224390       21.4582949927
  C        -0.3532782774       13.6879653207       22.5460123814
  H        -1.8026030160       12.3022888850       23.1004502097
  H        -0.8583350126       11.9338616729       21.5695946792
  C         0.9626164088       13.0214645375       23.2254812750
  H        -0.1255355880       14.1505330464       21.6089361646
  H        -0.6762940540       14.5588305412       23.1158406255
  C         1.4225321325       11.7067049732       22.5502074605
  C         0.6124146093       12.3043240299       24.5682584864
  C         2.1725938792       14.0013391982       23.3763568022
  C         1.1502510255       10.6317045850       23.3573511952
  C         1.9154137750       11.2807306882       21.2913311970
  C         0.6574247209       10.9803847091       24.6200879158
  C         0.1456067345       12.9206772502       25.6742800503
  H         2.3757445893       14.4507966940       22.4275223871
  H         1.9647228162       14.9074063890       24.0335207575
  C         3.3722743806       13.2751260444       23.9807816220
  S         1.4564430433        9.1538373031       22.5678065325
  C         2.0298342661        9.9616545805       21.1836668018
  H         1.9301273531       12.0534410954       20.5345058809
  C         0.2265531704       10.3559155102       25.7724846501
  H        -0.0976401283       13.9326436043       25.5614188611
  C        -0.2600775163       12.3427736964       26.8576526477
  H         3.7545741003       12.4397488193       23.3482685677
  H         3.1705159412       12.7972746343       24.9420539900
  C         4.5900066192       14.1554148730       24.2274759250
  C         2.4498943395        9.3126493242       19.9367880969
  C        -0.2600715587       11.0217650426       26.9224499110
  H         0.1056147344        9.2946480168       25.8216653608
  C        -0.7122804230       12.8036024182       28.0837905309
  H         5.1609859583       13.6854753277       25.0076494852
  H         4.2362434303       15.0892200136       24.6352726994
  C         5.3960647399       14.4388131135       22.9249564763
  C         2.3796714049        7.9553276540       19.7356176711
  C         3.1045667517       10.0702774069       18.8628431221
  C        -0.7580608158       10.3668016109       28.2232602590
  C        -1.1021387274       11.7542007185       28.8284356859
  S        -0.8116686573       14.3438849973       28.8402607393
  H         5.7511137387       15.4728330158       23.0050963453
  H         4.6116625893       14.5079435024       22.2124038022
  C         6.5868826437       13.5384590395       22.5878651958
  N         2.0512997385        6.9737360686       20.6471741213
  C         2.7270790348        7.3522675249       18.5284948865
  C         3.4256125335        9.5221121409       17.6741322076
  H         3.3799557810       11.1479362455       19.1040468534
  C         0.4403320416        9.5609670775       28.9055244000
  C        -1.9784329955        9.5380137385       28.0303143379
  C        -1.5382826163       12.2435578003       30.0641807107
  C        -1.4245423250       13.5903254982       30.2180251410
  H         7.4384687933       14.1579926915       22.4010522789
  H         6.8313222011       12.9620547310       23.4563436929
  C         6.3671110727       12.4658340363       21.6233773245
  S         2.1308566776        5.5052007805       20.0209172410
  N         2.5600108293        5.9650878302       18.5375679976
  C         3.0071958444        8.1357021383       17.4189292923
  H         3.8367682295       10.1709541917       16.9298977961
  H         0.9195658845        8.7893464602       28.3260097490
  H         0.1136490443        9.0575449977       29.7756009214
  C         1.5655566383       10.4388518657       29.4278981660
  H        -1.8048190692        8.6372868349       27.5209919239
  H        -2.4520168937        9.3343903476       29.0538502908
  C        -3.0896683118       10.4167124498       27.4223154771
  H        -1.5971154425       11.5409924688       30.8324027825
  C        -1.6142506648       14.3288410607       31.5439859715
  H         5.5542015254       11.8220811495       22.0047826050
  H         7.2119687899       11.7739843187       21.7090804661
  C         6.1530606547       12.9859489513       20.1785436556
  C         3.2254469327        7.4641554341       16.2261069402
  H         2.1420523386       10.8800279784       28.6552571658
  H         1.0986504602       11.1262283967       30.0251867200
  C         2.5464421849        9.5934233291       30.2610625707
  H        -2.7146972191       11.0066336966       26.5794496371
  H        -3.5095653852       11.1087930874       28.0828559174
  C        -4.2979125103        9.5268877516       27.0020671380
  C        -1.5862912133       15.7311654695       31.7098041662
  C        -1.6930723161       13.5595253540       32.8115629780
  H         5.5946151223       12.2267206298       19.6453110047
  H         5.5672406878       13.8691495071       20.1548724303
  C         7.3988942044       13.2103628249       19.3290573925
  H         2.9319696812        6.4288759204       16.2736913666
  C         3.5627297556        7.9127711977       14.9620279088
  H         3.0731229881        8.8254568886       29.6099372369
  H         1.9879255309        9.0134791165       30.9236084522
  C         3.7029253634       10.4479147620       30.8138749346
  H        -4.0662414280        9.0049455317       26.0875070832
  H        -4.6098355104        8.6996041224       27.6426356725
  C        -5.5044736715       10.4490478062       26.8157753350
  N        -1.3537772392       16.6494964595       30.6532964398
  C        -1.8157203076       16.3787708998       32.9342700958
  C        -1.9828253634       14.1730255786       34.0109636241
  H        -1.6580346774       12.5176127117       32.6962196323
  H         8.2314010843       12.5968651665       19.6985157042
  H         7.1008245714       12.9796717382       18.2854524540
  H         7.8104627902       14.2478483809       19.3951768859
  S         3.9533626606        9.4720113981       14.4071602597
  C         3.6659520838        6.8362816975       13.9113820539
  H         3.6537288421       11.4129767485       30.3193460870
  H         3.3591018768       10.6191930857       31.8093593780
  C         5.1722541861        9.9357118892       30.6970151356
  H        -5.2498451839       11.3264502023       26.2023976187
  H        -5.8503963968       10.8143471792       27.8010136248
  C        -6.5874848197        9.5984004780       26.2145725572
  S        -1.3173564686       18.1376031144       31.2507065106
  N        -1.7983117834       17.7672186984       32.7725850155
  C        -2.0459983711       15.6745776113       34.1571381471
  H        -2.0158276889       13.4769009307       34.8382213358
  C         4.1674407031        8.7136453665       12.7797851628
  N         4.0912136812        7.3703802972       12.7630251794
  O         3.4697932413        5.6460768584       14.1461135952
  H         5.7107880196       10.6647186970       31.2471426539
  H         5.6389041963        9.7837903302       29.6813696239
  C         5.4014907697        8.6198296345       31.4950226340
  H        -6.0845464947        8.9870232018       25.4467526635
  H        -6.8979018633        8.9541190491       26.9746108762
  C        -7.7688491852       10.3445593659       25.5822607325
  C        -2.3124119917       16.4691479317       35.3138031563
  S         4.8957049336        9.4584303358       11.3991701255
  C         4.1523552870        6.5583015929       11.5335144257
  H         6.2336220582        8.9740737047       32.1025755900
  H         4.5915962764        8.2671291761       32.1761973354
  C         5.8283861088        7.5142448876       30.5892033743
  H        -7.4303524415       10.9500669956       24.7230597888
  H        -8.0360198067       11.1706639595       26.2460509596
  C        -8.8754677564        9.3880478812       25.2245558109
  H        -2.2337804420       17.4805215630       35.0847613674
  C        -2.7843917371       16.1447934896       36.5203897479
  H         4.8540964739        6.9829983763       10.8354946749
  H         4.4433547172        5.5768135235       11.6917179719
  C         2.8443780269        6.6117857156       10.7812601160
  H         5.3681843492        7.4432020732       29.5962070937
  H         5.5806020403        6.6826717641       31.1551150434
  C         7.3054507987        7.4997262805       30.2547717379
  H        -9.3272590236        9.7814529215       24.3318330713
  H        -8.5338297606        8.3427723137       25.0065724041
  C        -9.9477547953        9.4295265523       26.3060998959
  S        -3.3318773145       14.6039187929       37.0123816922
  C        -2.9497465449       17.2774640696       37.4364357351
  H         2.6096965379        5.6422176977       10.4013093202
  H         2.1586667252        6.8838194078       11.5024985641
  H         2.8610970102        7.2243876219        9.8685728990
  H         7.9012252821        6.5807922167       30.4895486681
  H         7.7403364939        8.3462977697       30.5984830703
  H         7.5082647996        7.5593143212       29.1810571514
  H        -9.5857231212        8.9367848764       27.1990998242
  H       -10.7561125148        8.8377983739       25.9660563673
  H       -10.3030577898       10.4613929794       26.4313739309
  C        -3.7460859315       15.4248871647       38.4859752883
  N        -3.5100081281       16.7480692556       38.5455567542
  O        -2.6563869212       18.4393205684       37.2064843917
  S        -4.2016551834       14.6055271875       39.9641508724
  C        -3.6513374999       17.6340255804       39.6728405239
  H        -3.7055707127       18.6632587239       39.3476103426
  H        -4.5553146794       17.5014625672       40.1698970725
  C        -2.5624188096       17.3747315572       40.7274589456
  H        -2.9822096948       16.8803097664       41.5470722999
  H        -1.6341503841       16.9803997443       40.3047909369
  H        -2.2451026377       18.3081663230       41.1192062432
