352
i=
  H         4.5856579724        1.7157523344       12.2143950732
  C         4.0414425852        2.6529122651       12.3486751983
  H         4.7332902664        3.5011429486       12.2827806560
  C         3.2083073409        2.7319890934       11.0936420987
  C         3.2019279898        2.6435719295       13.6492287949
  C         4.0154353010        3.0585727084        9.8458646675
  H         2.5192288536        3.6262859325       11.0393142978
  H         2.6469999109        1.7630108955       10.9654807613
  H         2.6193637661        1.7093888123       13.6973958382
  H         2.4751381774        3.5185615529       13.6735584464
  H         3.8630984930        2.9435259706       14.4458500595
  C         4.6827577457        1.7533179414        9.2998507320
  H         3.3550204947        3.5383051622        9.1745745063
  H         4.6534387793        3.7493343765       10.1305407820
  C         5.3169781021        1.8677276661        7.9903795553
  H         3.9498016690        0.9490384908        9.3436156702
  H         5.5051067730        1.5091236435        9.9773475725
  C         6.6020412651        2.7256309456        7.9528319718
  H         4.5531674254        2.2079757533        7.2272082330
  H         5.5384549930        0.9181942835        7.6412833322
  C         7.8982712552        2.1793112682        8.7536581184
  H         6.8504670611        2.8536409612        6.9490688327
  H         6.3665539464        3.6912127898        8.4127077571
  C         9.1691856346        3.0936523001        8.8535420179
  H         8.2658563773        1.2507014489        8.2606741005
  H         7.7270640158        1.6826972031        9.7178627537
  C         8.8212264144        4.4181598414        9.5769599304
  C         9.6114050818        3.8468403104        7.6439566086
  C        10.3135363866        2.4417127373        9.6084749910
  C         9.0880305811        5.5670215313        8.8259301445
  C         8.3917600653        4.7539444440       10.8885456804
  C         9.5953371643        5.1878881888        7.5867947578
  C        10.0410546026        3.2020256996        6.4970477093
  H         9.7830481860        1.7133860856       10.3261020211
  H        10.8063002824        1.7541406997        8.8769700104
  C        11.3915795904        3.4377216383       10.2247790985
  S         8.4512162515        7.0052241386        9.5356861082
  C         8.1063884403        6.0923725537       11.0109050441
  H         8.3462768096        3.9796759631       11.6462573453
  C        10.0106205082        5.8469522458        6.4338141506
  H        10.0596193623        2.1450234195        6.5280705967
  C        10.4289078298        3.8295199087        5.3435495367
  H        10.9523163485        3.9979054057       11.0376922196
  H        11.8031196179        4.0262985382        9.4002014951
  C        12.5382084815        2.6880606449       11.0114317438
  C         7.6518712908        6.6587388267       12.3000048581
  C        10.4011411998        5.1907664717        5.2328802335
  H        10.0419544885        6.9019300098        6.4114954912
  C        10.9094107606        3.3880983589        4.1292917416
  H        13.3661642642        3.2640988468       11.0020454225
  H        12.6703792663        1.7041723656       10.4797372394
  C        12.1028895570        2.4158471537       12.4115771436
  C         7.7314791543        8.0392960637       12.6284991169
  C         7.2029226528        5.7498690569       13.3901242403
  C        10.9444166737        5.8128299749        4.0297436253
  C        11.2219717450        4.4768109265        3.2945986430
  S        11.3269048212        1.9159105962        3.3788694789
  H        11.5645480515        3.2545575879       12.8157592061
  H        11.4738905860        1.5502463507       12.3985313554
  C        13.4554235031        2.1590964241       13.0801269402
  N         8.1211297204        9.0374062879       11.7178099335
  C         7.4981081993        8.5266138619       13.8780517176
  C         6.8823044947        6.1892431700       14.6388025378
  H         7.0149683856        4.6973069570       13.1778412186
  C        12.2123991889        6.4628407673        4.2345256952
  C         9.8484810643        6.5801629321        3.2417121527
  C        11.7674907987        4.1054124029        1.9791136905
  C        11.7178245338        2.7456140121        1.8467344329
  H        14.1067514790        3.0399006921       12.9197604512
  H        13.8735978558        1.2952829368       12.5658840443
  C        13.2463844516        1.6685341596       14.4546323037
  S         8.1559056127       10.4599360951       12.4417904642
  N         7.5894859786        9.8894765742       13.8742511416
  C         7.0479081118        7.6815058317       14.9402107468
  H         6.6318810281        5.4248586030       15.3964331311
  H        12.0338169407        7.5247361609        4.5116277350
  H        12.7098449532        6.3499523660        3.2962344909
  C        13.1489761932        5.8500540644        5.2824806631
  H         9.3977122406        7.2257792741        3.9573695832
  H        10.3539148413        7.2395436031        2.5679758748
  C         8.6313187299        5.7922782933        2.6571925651
  H        12.0592750178        4.8492278414        1.2371528096
  C        11.9476605227        1.9254817568        0.5222767914
  H        12.3855681472        1.0359600600       14.5442890225
  H        14.0512903682        1.0269085250       14.6793266575
  C        13.3433447746        2.7643207909       15.4500004213
  C         6.8529846360        8.3511263954       16.1728157777
  H        12.6266528477        5.9636271948        6.2942662708
  H        13.1993152918        4.7575111396        5.2813129934
  C        14.5536140640        6.5560947607        5.2016382344
  H         8.4736170762        4.9546753069        3.3605924749
  H         8.8800409094        5.2880014891        1.7319554469
  C         7.3762694978        6.6320546167        2.5432042607
  C        12.0117416968        0.5392059955        0.3413483070
  C        12.1099391004        2.6899874754       -0.7483221746
  H        12.6157643811        3.5378083480       15.1375632623
  H        14.3412944295        3.2054231064       15.3724019127
  C        12.9263071322        2.3469165843       16.8801788474
  H         7.1154109518        9.4341100202       16.1282772566
  C         6.5599401582        7.9207799646       17.4602391666
  H        14.4680428805        7.3279703178        5.9480125412
  H        14.8228379585        6.8773141675        4.1730833776
  C        15.5805817397        5.6736941498        5.6178413452
  H         7.1788280146        7.1128035695        3.4349142983
  H         7.6472043117        7.4703018861        1.8591936428
  C         6.1651082768        5.7277426480        2.2925726022
  N        11.6097616354       -0.3852923846        1.3455422692
  C        12.1781162341       -0.1040484654       -0.8433642859
  C        12.2552313485        2.0397174851       -1.9642499302
  H        12.0327102481        3.7535390860       -0.7681833313
  H        13.6342595312        2.0589034685       17.6512762584
  H        12.1489509398        1.6172304167       16.7526894318
  H        12.2933306171        3.1095756142       17.2817811828
  S         6.0057508615        6.3475834319       17.9135850325
  C         6.6182775008        8.9414989613       18.5715581635
  H        15.3201996463        5.0292145807        6.4813392323
  H        15.6211109149        5.0299212841        4.7563728359
  C        16.9102202364        6.3356135922        5.9038306473
  H         5.7817867651        5.5245484093        3.3041350738
  H         6.4279509682        4.7681817105        1.8098086576
  C         5.0466940445        6.4040381976        1.5240056112
  S        11.7763114805       -1.8553764390        0.7637666883
  N        12.1741661829       -1.4914374254       -0.7584287303
  C        12.4251073174        0.5518893284       -2.0255287293
  H        12.3149368175        2.5388855887       -2.9407203495
  C         6.0459062551        7.0528461903       19.5904282305
  N         6.1471525561        8.4105824465       19.6744562762
  O         6.7432430317       10.1489081648       18.3796466393
  H        17.4118336318        6.4976736328        4.9472866302
  H        16.8575897390        7.3335117323        6.2711060629
  C        17.8115995351        5.4308294476        6.7969952568
  H         5.4634257607        6.8530315134        0.6246022268
  H         4.3423894615        5.6287707321        1.2365828884
  C         4.2816815912        7.4566100376        2.3175257683
  C        12.7478217938       -0.1070712527       -3.2533517848
  S         5.3562265532        6.1686297638       21.0384947071
  C         6.1008827494        9.1789614777       20.8862708509
  H        17.3715180453        5.3451238735        7.6959663642
  H        17.9201585291        4.4789383120        6.2567424497
  C        19.1740300946        5.9781982662        7.0250553893
  H         5.0272894883        7.9311971017        2.9690697071
  H         3.5307676270        7.1134120808        3.0319989485
  C         3.6392886672        8.4111416803        1.2681839379
  H        12.7222207792       -1.1374633798       -3.0926586249
  C        13.3859936771        0.2815068910       -4.4035142068
  H         5.4449740402        8.7247708799       21.6598398042
  H         5.6172984139       10.1370724721       20.5836270947
  C         7.4803931625        9.3112583083       21.5540512134
  H        19.6061152056        5.6070344748        7.9781531392
  H        19.2918917743        7.0169471123        7.1364147347
  C        20.1544274058        5.6934042871        5.8324298280
  H         3.3261010063        7.8020325059        0.4037467758
  H         2.8454282562        8.8437214430        1.8167991389
  C         4.4445583760        9.5564989532        0.6514058906
  S        13.9843235899        1.8212594782       -4.7833409675
  C        13.5948376417       -0.6947772516       -5.5147484588
  H         7.4491226470        8.5176701046       22.2938937427
  H         7.5122321300       10.2623680594       22.0462692141
  H         8.3203745465        9.1749445644       20.8907299107
  H        19.6940782862        5.0576409703        5.0808716386
  H        20.4064086695        6.5725838382        5.2596385748
  H        21.0711666882        5.2445752862        6.2045899270
  H         3.9669026923       10.4664578281        0.9912965483
  H         5.4370236309        9.5724277307        1.1087177132
  H         4.3828144773        9.5235142935       -0.4054103851
  C        14.4914315394        1.1485376797       -6.3734943741
  N        14.2007306907       -0.1394425522       -6.5595728265
  O        13.2163862648       -1.8830676952       -5.4261677553
  S        14.8499941352        2.1580245506       -7.7806488053
  C        14.5069126178       -0.8371407360       -7.8235799416
  H        14.8650582357       -1.8339552999       -7.5625429102
  H        15.3171255970       -0.2395868067       -8.3405140498
  C        13.2343906613       -0.8615475899       -8.8070818974
  H        12.5037585212       -0.1321744985       -8.4183459936
  H        12.7577105540       -1.8428327070       -8.9154061154
  H        13.4410787417       -0.5773475071       -9.8232501494
  H        -2.8172190365       15.0978197746       16.0631109554
  C        -2.7197055441       13.9773440665       16.1144236052
  H        -3.7675744621       13.6987421612       16.1651268888
  C        -1.8170559383       13.4887729874       17.2540359853
  C        -2.3220964621       13.4590687366       14.7483577549
  C        -2.2523289665       13.8244466702       18.6729716887
  H        -1.8428130499       12.4334133712       17.1479928664
  H        -0.7922317906       13.8237411834       17.0737671601
  H        -2.9945380923       13.8665399082       13.8774838541
  H        -1.2843664904       13.7255955026       14.5479924301
  H        -2.3285654339       12.3383009637       14.8249356887
  C        -1.2832438128       13.4057690633       19.8122008963
  H        -3.1710463634       13.2485738942       18.8441363728
  H        -2.5639970994       14.8213836434       18.6104901663
  C        -1.9823043627       13.6130348786       21.1802342119
  H        -0.9543323884       12.3589901564       19.6386424534
  H        -0.3845197554       13.9860130122       19.7250593026
  C        -1.2463657873       12.9568480711       22.3112076244
  H        -2.9596836816       13.0975906282       21.2179050084
  H        -2.2223625939       14.5926595979       21.4197018673
  C        -0.0057660572       13.7831175318       22.5754419352
  H        -1.9470675107       12.8177068020       23.1682256098
  H        -0.8281771830       11.9932322190       21.9391366331
  C         1.2162217754       13.0615218989       23.2776583736
  H         0.5265704882       14.1505920686       21.6737660988
  H        -0.2891898265       14.6684650398       23.2013196433
  C         1.4621073045       11.7788861677       22.5957999293
  C         0.7266217701       12.3675248004       24.5250098226
  C         2.3787416526       13.9274031051       23.4778280817
  C         1.1550194132       10.6376242533       23.3100195260
  C         1.9325736168       11.4038406416       21.3343336713
  C         0.5668504764       10.9981906996       24.5251894508
  C         0.2820486596       13.0130591310       25.6609342770
  H         2.5536346846       14.5279774377       22.6111418014
  H         2.1958333008       14.5981621663       24.2981756709
  C         3.6870771867       13.1665506801       23.7638239167
  S         1.5456841887        9.0896817494       22.5544369483
  C         2.0224484053       10.0517183040       21.1202756666
  H         2.2916223318       12.2027804307       20.7698020651
  C         0.0933251462       10.3884455464       25.7225211004
  H         0.3744243229       14.0835795688       25.7193750430
  C        -0.2249386567       12.3594076854       26.7983243458
  H         3.6878916424       12.3804220462       23.0113878386
  H         3.7316867657       12.7761856137       24.7831767801
  C         4.9589541785       14.0015448974       23.5695171169
  C         2.4695464583        9.3630748484       19.8819257957
  C        -0.3135840792       11.0099077110       26.8812428392
  H         0.1098357092        9.3628560075       25.6967704728
  C        -0.7029233143       12.7609185183       27.9984179412
  H         5.7715299011       13.4517859568       24.0264160826
  H         5.0082029538       14.8845506879       24.1260702006
  C         5.3777945878       14.2768754486       22.1698453322
  C         2.4667153745        7.9737374308       19.5950647358
  C         2.6663999704       10.2599493769       18.6765404900
  C        -0.7252083277       10.3828216394       28.1298605180
  C        -0.7906102879       11.7113890352       28.8978059125
  S        -0.8227237385       14.3222905148       28.6831598690
  H         6.1511645453       15.0071049855       22.0768677839
  H         4.5523148393       14.6682823501       21.5601000649
  C         5.8488613421       12.9759507306       21.3833883232
  N         2.1183572607        6.9864654811       20.4644185251
  C         2.6854821451        7.4553305076       18.3171804499
  C         2.9756464975        9.6755265887       17.4487195586
  H         2.5896093115       11.3088013467       18.5978241172
  C         0.3688493383        9.4831587533       28.8152037163
  C        -2.1098801528        9.6384044650       27.9470773193
  C        -1.1964446337       12.2742875335       30.1275253472
  C        -1.0724038084       13.6258067901       30.2365276291
  H         6.8941660835       12.8400589450       21.4658681932
  H         5.2909252745       12.0487278504       21.6850016116
  C         5.6515671855       13.1131076387       19.8971999923
  S         1.9810447483        5.5518087865       19.6972344244
  N         2.5135531346        6.0624722861       18.2179737458
  C         3.0966369327        8.1817837288       17.2337835322
  H         3.0942037266       10.3940922025       16.5844306356
  H         0.6301065752        8.6026050623       28.2242699602
  H        -0.0436160213        9.0650801388       29.7015855765
  C         1.6780864352       10.1620881033       29.0859036150
  H        -2.0617482621        8.7613148215       27.3327055894
  H        -2.3370815744        9.2823526210       28.9089333275
  C        -3.3116820344       10.4694793531       27.5372272338
  H        -1.4821439857       11.6152136610       30.9856600544
  C        -1.4070552367       14.3470856416       31.5593781309
  H         4.7405058793       13.6606523857       19.5570521549
  H         5.4167162315       12.0541919374       19.6431082327
  C         6.8175344317       13.6899921851       19.0997579831
  C         3.5141239399        7.5429373291       16.0089702870
  H         1.9821571569       10.6784309677       28.1957406776
  H         1.5459922807       11.0729361769       29.6655293286
  C         2.7859228297        9.2087689260       29.6613485995
  H        -3.1360456669       11.0273084625       26.5940676009
  H        -3.3834318183       11.1968272844       28.3605846541
  C        -4.5253599531        9.5703602694       27.3138671879
  C        -1.4414071727       15.7473184483       31.7367756862
  C        -1.8860639416       13.6128836464       32.7591059333
  H         6.7152856346       14.7685780600       19.2406095897
  H         7.7921908889       13.3646402473       19.4942912258
  C         6.8080512451       13.2368856929       17.6520685897
  H         3.4746548263        6.4597224299       16.0649632712
  C         3.8195302570        8.0295916464       14.7696005601
  H         3.0211819635        8.4019419449       28.9790663140
  H         2.3133225561        8.6575214796       30.5550783518
  C         4.1563206273       10.0008285756       29.9560651034
  H        -4.4624035654        9.1276171600       26.3569551597
  H        -4.7014067580        8.9012929977       28.0880991902
  C        -5.8183565154       10.3271434390       27.2002298334
  N        -1.1640961298       16.7419111471       30.7460791998
  C        -1.8013288209       16.3933062773       32.9275044978
  C        -2.1537425576       14.2173222284       33.9919527234
  H        -1.9428936206       12.5517708295       32.7775994069
  H         7.3409987471       13.8910250477       17.0065147329
  H         7.3318407357       12.2712038252       17.6032226462
  H         5.7606201958       13.0831463183       17.2399019039
  S         4.1583826683        9.6521584701       14.2598097723
  C         3.8922784275        6.9994347825       13.7464713800
  H         4.2075304542       10.8495472369       29.2781192975
  H         4.0981703441       10.3964346574       30.9804328675
  C         5.3603148610        9.1034717842       29.5904188386
  H        -5.7194281042       11.2173005081       27.7614550033
  H        -6.4962085692        9.5548805255       27.6762795568
  C        -6.3017796875       10.6346011920       25.7592395702
  S        -1.4247540818       18.2488163259       31.3252116753
  N        -1.8138187402       17.8024319299       32.8738865622
  C        -2.1059584529       15.7319731020       34.1319347911
  H        -2.3517246109       13.5624747124       34.8285365522
  C         4.2459674223        8.9229889562       12.6670690270
  N         4.2317458293        7.5783692443       12.5858681234
  O         3.9169295461        5.8058516020       13.9431369520
  H         6.1072201383        9.8813451066       29.3543902342
  H         5.3371088516        8.6139347683       28.6251671141
  C         5.8875927293        8.1305428377       30.6654416087
  H        -5.7940710468       11.4756196846       25.2908983724
  H        -6.1532591004        9.7670446960       25.0925292011
  C        -7.7820289256       11.0827634645       25.8962859102
  C        -2.4651261345       16.5198466697       35.2789085299
  S         4.8034773156        9.7480207797       11.1867971707
  C         4.2559213156        6.7949966844       11.3317996098
  H         6.9249941644        7.9751342416       30.4328386560
  H         5.9623953962        8.5307212374       31.6787257769
  C         5.2599050148        6.7761700460       30.7000066771
  H        -7.7740735357       12.1305193413       25.6614635524
  H        -8.1317598031       11.0585607606       26.9232598947
  C        -8.8777140712       10.2210942449       25.1811005796
  H        -1.9137793511       17.4794018399       35.3433987512
  C        -3.0982591251       16.1659424699       36.5097803420
  H         4.8799664352        7.2818481540       10.5762425116
  H         4.7334546784        5.7993522104       11.4495390388
  C         2.8576438166        6.7394930091       10.6224273279
  H         5.0286265011        6.5886438630       29.6913087234
  H         4.4135946111        6.8717172707       31.2945028693
  C         6.0312210577        5.5916631137       31.3059402622
  H        -9.0709575417       10.6541005962       24.1807265394
  H        -8.6731607171        9.1930050742       25.0169431091
  C       -10.1941104858       10.2730951700       25.9606453239
  S        -3.8386875700       14.6676303520       36.8601676396
  C        -3.1925784399       17.2207576486       37.5546826995
  H         2.5911135340        7.6833722764       10.1587199801
  H         2.8507084278        5.8304213721        9.9380037735
  H         2.0939572734        6.5139250530       11.3536745770
  H         6.2759316430        5.7471214609       32.3386069021
  H         7.0088913135        5.5420654955       30.7387416996
  H         5.3601867194        4.6494181643       31.2403697069
  H       -10.6592957096       11.2411493320       26.0693067095
  H       -10.0617336025        9.8970363806       26.9939603264
  H       -10.9038890878        9.5835294526       25.4640610167
  C        -4.2484833251       15.4515050503       38.4413256695
  N        -3.9147561648       16.7266707829       38.5837604200
  O        -2.5897050639       18.2520318407       37.4297137739
  S        -4.9944164219       14.6034757679       39.8427138042
  C        -3.8902788570       17.5709335976       39.8477287057
  H        -4.0593256765       18.6165944420       39.5011261573
  H        -4.7107829593       17.3056571692       40.4116630709
  C        -2.5001716764       17.3837921949       40.5784086894
  H        -1.9104989753       16.5565812908       40.2180327100
  H        -1.8811301315       18.2103613949       40.3951560726
  H        -2.5789988925       17.1801344279       41.6644998554
