352
i=
  H         2.2145782397        3.2722865399       12.2793395372
  C         2.9904479774        2.5119838281       12.3762966741
  H         2.4578873247        1.6196980268       12.0271879428
  C         4.1853390206        2.6639227764       11.4238829797
  C         3.3707687633        2.4153959388       13.8084927350
  C         3.8648415826        2.3201851543        9.9864098106
  H         5.0319436889        2.2779191002       11.8738281845
  H         4.4434553632        3.7174885046       11.5434927254
  H         3.4497643011        3.4485327911       14.1214135153
  H         4.3128933940        1.8970143163       13.9678500238
  H         2.5770926204        2.0507300035       14.4049362834
  C         4.9135072973        1.4816758840        9.3579593830
  H         2.8503466272        1.9180779164        9.9649751126
  H         3.7949113468        3.2766770490        9.4361158376
  C         5.6984159517        2.2062523676        8.2415419740
  H         4.4390289187        0.6376382429        8.9240563348
  H         5.5524875316        1.0141640316       10.1493219713
  C         6.7603024591        3.0622357010        8.7660595130
  H         5.1034045133        2.6431099903        7.4851109666
  H         6.1800182740        1.4541501263        7.6686503690
  C         8.0634674644        2.2891487072        9.2225694173
  H         6.9120741872        3.7585754501        8.0171275105
  H         6.4625084772        3.6218275711        9.6675503653
  C         9.2683778354        3.2334827362        9.4068497093
  H         8.4570391195        1.5378931605        8.5042079927
  H         7.8178460399        1.8010539869       10.1198789006
  C         8.9241526649        4.6060605903        9.9980937948
  C         9.8346826753        3.9200994122        8.1688129674
  C        10.4206817731        2.5378886124       10.1508662665
  C         9.2494992105        5.7032264611        9.2493359058
  C         8.3122280394        4.9337980746       11.2154342126
  C         9.7323349633        5.3021437507        8.0247818464
  C        10.3405086095        3.2826047902        7.0658573701
  H        10.1049164754        1.8902998429       11.0236559314
  H        10.7123567263        1.7460111685        9.4821771282
  C        11.6739076473        3.3260880943       10.5931892794
  S         8.9456985016        7.1409066649       10.1334792828
  C         8.0527154955        6.2662874705       11.3292429586
  H         7.9747960545        4.0846813972       11.7850447114
  C        10.1037498928        5.9152986924        6.8706842238
  H        10.2970648354        2.2549801493        7.1065829932
  C        10.6224481623        3.8936922643        5.8549200502
  H        11.3373162221        4.2989513895       10.9165908276
  H        12.3348937626        3.4471648559        9.7865352877
  C        12.3738378223        2.6147154472       11.8313435864
  C         7.5264843120        6.9503238114       12.5156041925
  C        10.6165818074        5.2450378610        5.7523492006
  H         9.9251549812        6.9872583340        6.7030248829
  C        11.0067933158        3.4142441219        4.5652814088
  H        13.3623720003        3.1456274928       12.0089716465
  H        12.7517363514        1.6662590142       11.5614766107
  C        11.4888030188        2.5132240598       13.0303860483
  C         7.6117483755        8.3654242576       12.7297165717
  C         7.1061639461        6.2105706849       13.7315523028
  C        10.9314025276        5.8756449901        4.4217432070
  C        11.1730176945        4.4754867805        3.7284463649
  S        11.2364236872        1.9449626053        3.9176249707
  H        10.6034667741        3.0950242045       13.0500946245
  H        11.1598505592        1.5184778311       13.0419900411
  C        12.3244027117        2.7194388894       14.2160912650
  N         7.9224335052        9.3383263414       11.7987959998
  C         7.3387123842        8.9415301400       13.9819033665
  C         6.8187385892        6.7661078730       14.9511134070
  H         7.0770849997        5.1625966502       13.6766684317
  C        12.2870964125        6.6350128934        4.6188633111
  C         9.7328518588        6.7043861257        3.8836892059
  C        11.5655829460        4.0988427799        2.4246770428
  C        11.5813203176        2.7037404178        2.4419496409
  H        12.4436181322        3.8165180475       14.3319036736
  H        13.3485696600        2.4541876767       14.2008280877
  C        11.6542692567        2.1116713426       15.4451468548
  S         7.8259344054       10.7597819311       12.4720373182
  N         7.4832157877       10.3651214245       13.9558219924
  C         6.9451481371        8.2406721277       15.0919883310
  H         6.5786718932        6.1398360403       15.7482086536
  H        12.1119418357        7.4730520103        5.3513768065
  H        12.5708926679        7.1449197904        3.6926841973
  C        13.4943139856        5.7039932442        5.0473025643
  H         9.5389068395        7.5698232702        4.4814602654
  H        10.0925475132        7.2078659025        2.9301640083
  C         8.4343085972        5.9487233012        3.6404417712
  H        11.6520755094        4.8298440618        1.6432093787
  C        11.9514543869        1.7981222883        1.2901499691
  H        10.7439617734        2.7130392121       15.4981024266
  H        11.3069417084        1.0700102952       15.1795243776
  C        12.3888262092        2.1802170667       16.7330644035
  C         6.8025054305        8.9936340954       16.2866267987
  H        13.1965338640        5.0220819827        5.8961810935
  H        13.7199302372        5.0642314734        4.2336024823
  C        14.7371920422        6.5080977917        5.4369674564
  H         8.3022437771        5.3792393549        4.5245443178
  H         8.6709261044        5.2587839897        2.8468979071
  C         7.2393269951        6.7836667891        3.2930063470
  C        11.9399803386        0.3861931309        1.2710435989
  C        12.5569762357        2.3660571757        0.0838975841
  H        13.2184057807        1.4878951632       16.6547289619
  H        11.7255887446        1.7612627412       17.5310705669
  C        12.8950999908        3.4318459800       17.3291725245
  H         7.1036902583       10.0669124172       16.2669876223
  C         6.3958800471        8.6414240956       17.5366508104
  H        14.4121949074        7.2218994024        6.2050409208
  H        15.2876536584        7.0426428116        4.6876326584
  C        15.5890238019        5.5104712766        6.2558559051
  H         6.6645149885        6.7519385685        4.1996879474
  H         7.5690508215        7.7678070766        3.0414680017
  C         6.3863795490        5.9448337710        2.2948257332
  N        11.4761625565       -0.4677699794        2.2518654097
  C        12.1961842116       -0.3248211123        0.1077301754
  C        12.7970747788        1.6739078278       -1.0794299478
  H        12.8398747844        3.4036255500        0.1537166544
  H        12.1119956800        4.2332319325       17.3182320591
  H        13.6612790910        3.8243716473       16.6362547671
  H        13.2573842800        3.3235273855       18.3602932333
  S         5.9077519092        7.0387526217       18.1122315686
  C         6.3383368772        9.6360745453       18.5983401750
  H        15.2087971945        5.4751125895        7.3034467029
  H        15.5246888501        4.4830789925        5.8164286475
  C        17.0198542329        5.9358495995        6.3457855370
  H         6.2206999055        4.8693677218        2.6332199692
  H         6.9729572548        5.9290076906        1.4067174344
  C         5.0474423235        6.6299653240        2.0767125932
  S        11.3351960144       -1.9706680559        1.7226337246
  N        11.9912540533       -1.6990978665        0.2508301564
  C        12.5817022024        0.2041125500       -1.1384320952
  H        13.1177146491        2.2481713119       -1.9168953938
  C         5.8008857243        7.7849336973       19.7057881709
  N         6.0481028208        9.1120178089       19.8198160044
  O         6.5935764348       10.8190921314       18.3450793442
  H        17.2892504598        6.1026478401        5.3407509267
  H        17.1364674961        6.8746373237        6.8521250663
  C        18.0342561211        4.9396696652        6.9519826884
  H         4.4497064779        5.9214079202        1.5435236207
  H         4.4614838491        6.7689587583        2.9652088906
  C         5.0264917962        7.6637714991        1.0681010323
  C        12.7964107763       -0.6330227953       -2.2979391237
  S         5.0736790038        7.1185076896       21.0831109803
  C         6.1118845281        9.9438386032       21.0622218911
  H        17.8174220896        4.5641386869        7.9657962248
  H        18.1980874507        4.0810254095        6.2895104790
  C        19.3286278212        5.6155014157        7.2456925799
  H         5.0625745853        7.3078698067        0.0207362448
  H         5.9342526820        8.2497853369        1.2471521833
  C         3.9204192886        8.7220882217        1.2341291029
  H        12.1607436849       -1.4905585169       -2.1380248829
  C        13.3578933527       -0.4305016560       -3.5533463438
  H         5.1755126841        9.9463243986       21.6620847616
  H         6.2219884490       10.9292463532       20.8561639945
  C         7.3602499761        9.4673363441       21.8914187572
  H        19.9897310727        5.0974584318        7.8904725454
  H        19.0888548947        6.5270172228        7.8157581300
  C        20.1073887988        5.8462107310        6.0008554672
  H         3.9358341277        9.2564330460        0.3026152094
  H         2.9236512167        8.2857906405        1.4263760631
  C         4.1656483115        9.6114772213        2.4518145909
  S        14.1654787450        1.0549625581       -4.0696678794
  C        13.2388449711       -1.4560437215       -4.5695977851
  H         7.1983300495        8.5830285108       22.4743879308
  H         7.6477404615       10.2529152454       22.5557712839
  H         8.1616083945        9.2296105681       21.1946883774
  H        19.6587044355        6.7296029210        5.4280458931
  H        21.1266331424        6.0418575438        6.2069648457
  H        20.0832826706        4.9608615149        5.3944684158
  H         3.2983924898        9.5982254510        3.0768463254
  H         4.9834864353        9.2597068513        3.0667548186
  H         4.4198775394       10.6836172144        2.2309091762
  C        14.1728114038        0.2497688953       -5.6328820585
  N        13.7882302487       -1.0490970895       -5.6794336200
  O        12.5805843991       -2.4494115958       -4.3402363860
  S        14.8926445316        0.8084467104       -7.1547913977
  C        13.9640004042       -1.9703304749       -6.7504704239
  H        13.7958465118       -2.9541867566       -6.2523292553
  H        14.9375837064       -2.0915304258       -7.1142122698
  C        12.9098201771       -1.8359010744       -7.8646179923
  H        12.8898775487       -0.8524981302       -8.3023108694
  H        11.9771797829       -2.0454797148       -7.4628697171
  H        12.9687887538       -2.5705212344       -8.6164418900
  H        -2.6195147891       15.5200045275       16.7004499407
  C        -2.5037865204       14.4034551702       16.8323724477
  H        -3.3942929772       14.1106852771       17.4362989835
  C        -1.2505515422       14.1635872584       17.6052601716
  C        -2.4910771699       13.5904973801       15.4801992938
  C        -1.3749780625       13.3511295014       18.8698706115
  H        -0.4886943158       13.7216836466       16.9583286851
  H        -0.8302712948       15.1168831082       17.7602828342
  H        -1.7581368181       14.0490919000       14.8444413113
  H        -2.2037474284       12.5716343684       15.7382532176
  H        -3.4909112860       13.7372232420       15.0087393375
  C        -2.0119449103       14.2522535732       19.9250553054
  H        -0.3927617307       13.0301600241       19.2199075054
  H        -2.0141818001       12.5809725327       18.6041781508
  C        -2.4602776452       13.6058323514       21.2362075954
  H        -1.1883106578       14.9593059188       20.0912449467
  H        -2.8826750201       14.7848403985       19.4986752772
  C        -1.3225271184       12.8271022796       21.9846775346
  H        -3.3265362717       12.9390581421       21.1137446893
  H        -2.7875940252       14.4448351864       21.8320432847
  C        -0.1296578906       13.7524619713       22.2919674133
  H        -1.8101608225       12.4714787342       22.8835237887
  H        -0.9767295913       11.9823289807       21.3444860361
  C         0.9919852821       13.0204590997       23.0676192991
  H         0.3795273520       14.0965587046       21.3592668172
  H        -0.3993370426       14.5967627005       22.9789499737
  C         1.2600608042       11.6693668873       22.4479589070
  C         0.5555303021       12.2895046649       24.3482722799
  C         2.2267841923       13.8831408703       23.2081982181
  C         1.1999193096       10.5956442437       23.2534361693
  C         1.8019817730       11.3131976502       21.1817955032
  C         0.5496886269       10.9951677014       24.4424214165
  C         0.1068400370       12.9042865500       25.5171007606
  H         2.3862953076       14.5031997130       22.3227489460
  H         2.0772219681       14.5612872079       24.0470510863
  C         3.5618891950       13.2388026281       23.4988953718
  S         1.8496477158        9.1852374098       22.6289389300
  C         2.0362794804        9.9840260097       21.1262289173
  H         1.8267404511       12.0844608913       20.3807275587
  C         0.2386864451       10.3839662467       25.6157143876
  H         0.1276572779       13.9904173584       25.4634823382
  C        -0.1438649797       12.3130946644       26.6957306823
  H         4.0168251463       12.7462948360       22.6067271495
  H         3.4033165778       12.5296330611       24.3046578183
  C         4.6027614274       14.2133278888       24.0417737955
  C         2.5900874857        9.2918874549       19.9623736416
  C        -0.1271474329       10.9984494568       26.8059087692
  H         0.3739927245        9.3833723644       25.5958503220
  C        -0.5377525182       12.7254669454       27.9552420073
  H         5.3377803623       13.7217539151       24.7001503057
  H         4.1921131664       14.9539363240       24.6295779547
  C         5.3835428669       14.9574152368       22.9266489507
  C         2.3451213303        7.9239647646       19.6233928684
  C         2.9699748606       10.2165550172       18.8529827874
  C        -0.4257312409       10.3326904325       28.1325653419
  C        -0.6799189163       11.6379528193       28.8146881941
  S        -1.0559054227       14.1912479230       28.6728352895
  H         5.8197745475       15.8868366789       23.3529978955
  H         4.6554348059       15.2658822311       22.1976521576
  C         6.4892570712       14.0989423652       22.3345427940
  N         2.0119041619        6.9753925376       20.5676185115
  C         2.6287193652        7.4431213511       18.3755256213
  C         3.2667865393        9.7228654393       17.5843111375
  H         3.2302450223       11.2348864122       18.9470918048
  C         0.8015076664        9.5286301620       28.8501352965
  C        -1.7215171632        9.4674365514       28.0392690248
  C        -1.1797957333       12.0527774647       30.0935703930
  C        -1.3697568167       13.3591526426       30.1701564989
  H         7.5116913148       14.4909646626       22.4867688225
  H         6.3378120231       13.0756478895       22.7581706354
  C         6.2781578996       14.0838370381       20.8693281951
  S         2.0275334386        5.5337842377       19.8313228520
  N         2.5151596289        6.0589739059       18.3519562317
  C         3.0718894919        8.2595730851       17.2829295552
  H         3.6044425997       10.3637042704       16.8162516428
  H         1.2296046824        8.9173774179       28.0623103228
  H         0.3674118096        8.9971109139       29.7021011488
  C         1.9714240798       10.4623050411       29.2834072964
  H        -1.6944155956        8.6700039791       27.2345457335
  H        -1.8327264718        9.0190664773       28.9779773019
  C        -3.0016406633       10.2093763763       27.6981019184
  H        -1.4496862338       11.3450851154       30.8291476400
  C        -1.7509691647       14.1649315791       31.3830615456
  H         6.1055510432       15.0472177391       20.5450139857
  H         5.3334506551       13.6383432592       20.6316885373
  C         7.4883190537       13.6891995333       20.0020164743
  C         3.1259525245        7.6103372269       16.0464396800
  H         2.2563227955       11.0280149719       28.4341614094
  H         1.7137361333       11.0759432135       30.1348741710
  C         3.1610184287        9.6004206872       29.7297550034
  H        -2.9306923558       10.8262098250       26.7578848675
  H        -3.0331290245       10.9345877519       28.4213795977
  C        -4.2022244576        9.3941002071       27.3483293254
  C        -1.7013665907       15.5966090966       31.4695005083
  C        -2.0751086714       13.4480062325       32.6400296948
  H         8.4750248645       14.0373001793       20.4075484453
  H         7.5197931809       12.6263571370       19.9827947166
  C         7.3682670397       14.1629684763       18.5764706749
  H         3.2453086568        6.5490399244       16.0172912589
  C         3.4408251286        8.0943757237       14.7995203229
  H         3.5935190960        9.1208301576       28.8782809119
  H         2.9185700632        8.8381225359       30.4950517609
  C         4.2551882986       10.5341759410       30.2780228139
  H        -3.8345103867        8.8484766124       26.4323151936
  H        -4.4719575372        8.7487293055       28.2380655007
  C        -5.5095446989       10.1188338143       26.9275308081
  N        -1.4840788911       16.5213084034       30.4412897553
  C        -2.0455920570       16.2586423195       32.6571656300
  C        -2.3836424202       14.0887959112       33.8378072120
  H        -2.0417662508       12.3715085291       32.5751115448
  H         8.0306618293       13.5397236296       18.0016559742
  H         6.4307843206       14.0336688039       18.0346301382
  H         7.7810159027       15.1455969634       18.4636279032
  S         3.7637788023        9.7260987314       14.2580484095
  C         3.6435300830        7.0910566888       13.7062106197
  H         4.3037116686       11.5350161252       29.7017703834
  H         3.9229371673       10.8324859673       31.2505293532
  C         5.6264014037        9.9489856398       30.3511382989
  H        -5.6135332497       11.0748415762       27.4659152569
  H        -6.3436656078        9.5097243833       27.2439243368
  C        -5.8288071982       10.3094642094       25.4439182159
  S        -1.5928525519       18.0365354289       30.9944636729
  N        -2.0820944705       17.6811311642       32.5249818473
  C        -2.3600087752       15.5900842443       33.8691090680
  H        -2.5776825744       13.3706947044       34.6185108010
  C         4.2152066457        9.0106865803       12.6889782930
  N         4.1365167738        7.6536540136       12.6207720004
  O         3.4581619318        5.8772889053       13.8207257538
  H         6.1933300065       10.6374993652       30.8798079540
  H         5.9238206798        9.8475285921       29.2903207481
  C         5.7800343002        8.5601432518       31.0618115962
  H        -4.9235385166       10.7971449157       24.9531305634
  H        -5.9313871857        9.4080362308       24.9036120681
  C        -7.1160492824       11.1058462398       25.2214344716
  C        -2.5782146640       16.4336551029       35.0321986274
  S         4.5035976597        9.8393402805       11.1389772600
  C         4.3597820857        7.0707895345       11.2607556026
  H         6.4368730744        8.8448974227       31.9073344187
  H         4.8330171878        8.1728937026       31.3940943817
  C         6.3650276398        7.4298267616       30.2884494830
  H        -7.1473330158       11.4937224213       24.2118859891
  H        -7.0567127444       11.9681395262       25.9123845696
  C        -8.4100164396       10.4295846659       25.6212509803
  H        -2.1092180326       17.2829040899       34.8315594948
  C        -3.2317312944       16.2448761769       36.2044121428
  H         5.1275032675        7.4792131555       10.6223593753
  H         4.6517419817        6.1353007513       11.5738869400
  C         3.0251403421        6.9939021823       10.5384913608
  H         7.3159701392        7.6625099477       29.7951068564
  H         5.7434368674        7.0825531632       29.4605447453
  C         6.7736019624        6.4240937987       31.3565159501
  H        -9.1003124057       10.2470467093       24.7679411734
  H        -8.0945229085        9.4586354640       25.9851724478
  C        -9.1478694091       11.1394191697       26.7373993527
  S        -3.8916304341       14.7813188449       36.7747865005
  C        -3.2617375673       17.4386810216       37.1093599550
  H         2.9692506817        6.0059845324       10.0335360937
  H         2.2771012739        6.8443935540       11.3376003976
  H         2.8436835371        7.7790186189        9.7683336650
  H         6.6469492250        6.8972802081       32.3751215254
  H         7.8607573944        6.1649722475       31.2499046434
  H         6.2902295932        5.4002101804       31.3311385586
  H        -9.3985209096       12.2074743777       26.5433727555
  H        -8.5530442706       11.0542787949       27.6485588598
  H       -10.1537158274       10.7054571332       26.8361042913
  C        -4.3392427306       15.7718832817       38.1985359552
  N        -3.9718905378       17.0733282318       38.1752413812
  O        -2.6959711163       18.5283044074       36.8761832860
  S        -5.0115781556       15.0298966773       39.7133037915
  C        -4.0243824465       17.9445623578       39.3643184495
  H        -4.1071227643       18.9228660346       39.0977724381
  H        -4.8467380157       17.6749036763       40.0130617631
  C        -2.7517570171       18.0777643260       40.2917488949
  H        -2.5945438748       17.2037088328       40.8499495791
  H        -1.8709810872       18.4594386129       39.8674665760
  H        -2.9917267148       18.8204817207       41.0826628982
