352
i=
  H         3.2462190587        0.9619218805       12.9387627142
  C         3.8458125313        1.8498618806       13.0602119361
  H         4.8633487394        1.4826113620       12.8053594756
  C         3.4758230841        2.9353305865       12.0140945130
  C         3.6292783847        2.3102368749       14.4596485908
  C         4.1964636545        2.9506056215       10.6754602511
  H         3.7966684859        3.7757022473       12.6319990680
  H         2.4064027458        3.0754491414       11.9163215025
  H         3.4916230186        1.5410217351       15.1652472428
  H         2.8838777768        3.0859825081       14.6370570763
  H         4.5763393397        2.7964806624       14.8736028431
  C         4.4020244453        1.6584874220        9.9392287665
  H         3.8329616251        3.6805226844       10.0261809183
  H         5.2251033396        3.2584812556       10.8347569376
  C         4.9820111358        1.8030594392        8.5161398415
  H         3.4519688740        1.2668803784        9.8891930162
  H         5.0607358680        1.0126291832       10.4500315016
  C         6.2893207641        2.6167165011        8.5305650073
  H         4.3499909621        2.2881493194        7.7516868010
  H         5.0961022820        0.7859773699        8.1600237317
  C         7.5630483551        1.9306673917        9.0149786968
  H         6.5627073352        2.7679186765        7.5361391600
  H         6.1356874324        3.6375075791        8.9562769364
  C         8.9211783000        2.6245206452        9.1053437634
  H         7.7652977707        1.0304241946        8.3806417543
  H         7.3537226583        1.5080926042        9.9644648123
  C         8.7367242515        3.9586904728        9.8306144785
  C         9.4698711192        3.3143469325        7.9348158021
  C        10.0087409379        1.8798410522        9.7789216679
  C         9.0542811023        5.0801446088        9.0947694289
  C         8.2176217558        4.3568402072       11.0992721201
  C         9.5464674138        4.6609766665        7.8809705817
  C         9.8506117857        2.6569390123        6.7781930264
  H         9.6835413944        1.3533586099       10.6687324475
  H        10.2800595309        1.1064096833        9.0294013341
  C        11.3737593322        2.6836957896       10.0803553527
  S         8.7566442641        6.5726842855        9.9204351910
  C         8.1883430721        5.7315355323       11.2764636719
  H         7.9249616421        3.6888350269       11.8303519506
  C        10.0258982329        5.2915927203        6.7635203387
  H         9.8581399799        1.6151105660        6.7787242623
  C        10.3152287976        3.2332709638        5.6893055658
  H        11.2007706742        3.6931658398       10.3516994274
  H        11.9025059113        2.8526833512        9.1344161504
  C        12.3343169014        2.0377631380       11.1378831288
  C         7.6938883950        6.4392895893       12.5073267203
  C        10.3269919714        4.6176616158        5.5737685321
  H        10.2394450322        6.3246183084        6.7272458697
  C        10.7711778765        2.8397973895        4.4465888473
  H        13.3224831712        2.5418280097       10.9882531717
  H        12.5036451987        1.0496449672       10.7777092183
  C        11.8654760680        2.4451612447       12.5596136659
  C         7.7532204647        7.8309063201       12.7366700378
  C         7.2241474546        5.6201628869       13.6157029350
  C        10.8221281707        5.2681922731        4.2752364202
  C        11.1010826179        3.9071798736        3.6292938122
  S        10.8957667929        1.3602804067        3.6444642855
  H        11.9755931575        3.5236536534       12.7104867486
  H        10.7458405154        2.2101168826       12.6690876099
  C        12.4688545369        1.5877168503       13.5956470782
  N         8.3743082478        8.7731962619       11.9072644233
  C         7.4939475103        8.3671326346       13.9979093595
  C         6.9287037844        6.1410302855       14.8727230499
  H         7.0284073907        4.5495200942       13.4754975015
  C        12.0987738391        6.0827029518        4.3952224898
  C         9.7733732469        6.0762201031        3.5086303470
  C        11.3950724607        3.5293174125        2.3265974001
  C        11.3914076552        2.1989510153        2.2046908763
  H        13.4855956651        1.8376751505       13.7301396570
  H        12.3856686071        0.5547128557       13.3420040911
  C        11.7246387600        1.8028028733       14.9180778900
  S         7.9998278882       10.2320434356       12.5369073980
  N         7.5698817246        9.7683701280       14.0533900313
  C         7.1083871990        7.5637258130       15.1283421919
  H         6.5005781548        5.4977342488       15.6012497519
  H        11.9546760313        7.0428606757        4.8890117038
  H        12.4466626998        6.3356435833        3.4182023939
  C        13.2157653324        5.3652221781        5.1278727843
  H         9.5750461275        7.1160341423        3.8977195646
  H        10.2667339331        6.3848930945        2.5905523758
  C         8.4632709393        5.4256251803        3.0999915372
  H        11.7341706571        4.2540083888        1.5638270314
  C        11.6631165792        1.4714616997        0.8869620565
  H        11.5448585579        2.8053497754       15.1515967480
  H        10.7633641310        1.2994363667       14.9739092270
  C        12.4650180975        1.3405852213       16.0600834021
  C         6.7307826024        8.2729314612       16.3320941695
  H        12.9146010386        5.4214052775        6.1361546119
  H        13.2285999264        4.3233181412        4.8149358515
  C        14.5658827119        5.9802352556        5.1276742310
  H         8.1087560897        4.8634422952        4.0065260294
  H         8.4668498529        4.6709882836        2.3306778092
  C         7.5054921142        6.5189902852        2.7744681018
  C        11.8259665908        0.0679722674        0.6910409311
  C        11.9736154427        2.2988846889       -0.2762168503
  H        13.0034891736        0.4758379560       15.7447602916
  H        11.7568212558        0.8600533119       16.7502774371
  C        13.3288796660        2.3491733008       16.8096579417
  H         7.0785839450        9.2868153021       16.3448792974
  C         6.5446229409        7.7293160402       17.5846939122
  H        14.5031169671        6.7733261755        5.8794873775
  H        14.6316777732        6.4736250527        4.2158427284
  C        15.7428860407        5.1872639567        5.5404534047
  H         7.2213217084        6.9168108131        3.7471730903
  H         8.0333541351        7.3687066533        2.3600465689
  C         6.2509830089        6.0418165143        1.9622148253
  N        11.4528458115       -0.8528691063        1.6433816312
  C        12.2092202815       -0.5130695254       -0.4991529962
  C        12.2938692729        1.7274219264       -1.4845323762
  H        11.8512028568        3.3845211633       -0.2256849258
  H        12.7152571454        3.2375504372       17.0917648410
  H        14.1297260359        2.7007946258       16.1353506036
  H        13.7761537022        1.9868111503       17.6830197184
  S         6.1817893614        6.0783219387       17.9669032926
  C         6.3748545356        8.7469420651       18.6711725584
  H        15.3763113293        4.3081938131        6.1028873232
  H        16.3876464434        4.8559596988        4.7291396110
  C        16.5813373720        6.0157790896        6.5491491106
  H         5.5033487063        5.7471371525        2.6923957749
  H         6.5591982505        5.2379494945        1.2592007410
  C         5.6232943450        7.1402818268        1.1440788935
  S        11.6989481044       -2.3632405473        1.0839071555
  N        12.2079074844       -1.9045634956       -0.3694109384
  C        12.4735053242        0.2635247876       -1.7192356789
  H        12.4527335426        2.4439281191       -2.3007464272
  C         5.9782790806        6.7063893834       19.6104642663
  N         6.0134413095        8.0436538418       19.7522610504
  O         6.7510569635        9.9049709606       18.6273266519
  H        17.1207082222        6.8150506383        6.0749869690
  H        16.0140439729        6.4841063086        7.3587837462
  C        17.6483689093        5.1518670301        7.1232756765
  H         6.4097736417        7.8291373137        1.0059345295
  H         5.3097575295        6.6316287569        0.1922791925
  C         4.4456070057        7.8313464781        1.7922725209
  C        12.8313201347       -0.5199043104       -2.8816526791
  S         5.5976334740        5.7977099449       21.0054438398
  C         5.8689170450        8.8559601067       20.9941939748
  H        17.1359629579        4.5638267732        7.9522710255
  H        17.9437889506        4.4608031589        6.4090796166
  C        18.8395245703        5.9352771165        7.6505913921
  H         4.7031275390        8.2053817457        2.7581685664
  H         3.5909557240        7.1550885839        1.9169761560
  C         3.8578713944        9.0336784861        0.9618359559
  H        12.6605930845       -1.5926182353       -2.8662336449
  C        13.3157551545       -0.1990577973       -4.1376916169
  H         5.1588131361        8.3661880312       21.6943301366
  H         5.3395660737        9.8481148866       20.7355141378
  C         7.1794322726        9.0715437693       21.6373070055
  H        19.1739826458        5.5304447651        8.6335090080
  H        18.4651113272        6.9302935451        7.8372011942
  C        19.9789263285        6.0112822823        6.6447058495
  H         3.3529876374        8.6147224860        0.0873748581
  H         3.1907620742        9.5218990154        1.6819350510
  C         4.8332269410       10.1300840028        0.6068520140
  S        13.8904241129        1.3864787152       -4.6377777082
  C        13.3851837462       -1.2151131803       -5.1954561688
  H         7.8082931892        9.7007028120       21.0048144209
  H         7.7758980776        8.1213651970       21.6529229079
  H         7.0438907853        9.5192427759       22.6647437827
  H        20.7118956456        6.8469294003        6.8631980306
  H        20.6399490284        5.1438117230        6.6777875519
  H        19.6765599109        6.0138532630        5.5721643725
  H         5.3700536401       10.4096186835        1.4271469962
  H         5.5885645879        9.8400974733       -0.1285132690
  H         4.3029897034       11.0131363929        0.1594366087
  C        14.1088982632        0.6612511210       -6.2340187517
  N        13.8566201760       -0.6579928145       -6.3553449431
  O        13.0473192650       -2.4083529100       -5.0610147184
  S        14.6846084211        1.5206882973       -7.6176168604
  C        14.1165186897       -1.4398303760       -7.5460061733
  H        14.5610877067       -2.3558555606       -7.2436746183
  H        14.7668317896       -0.8969294198       -8.1588372299
  C        12.8708279255       -1.6836453545       -8.3819903338
  H        11.9933739394       -1.3161279029       -7.9567200129
  H        12.8525670022       -2.6939455489       -8.5406738951
  H        13.0068935099       -1.1607595595       -9.3283005157
  H        -2.1679822477       15.0100017424       17.6896889040
  C        -3.0558706322       14.5324574589       17.2402302083
  H        -3.7288951722       15.3759305875       17.2617156973
  C        -3.5024674470       13.5104241499       18.3065765465
  C        -2.6911256978       14.0807469817       15.8991159280
  C        -2.3652957106       12.4702936023       18.5564154181
  H        -3.8502626814       14.1023556730       19.1657504730
  H        -4.3353492845       12.8814693468       18.0350392758
  H        -1.7545230155       13.5435446735       15.8649084605
  H        -3.4996441731       13.5270236474       15.5229494321
  H        -2.4328667245       14.9663500819       15.2634671410
  C        -1.3486534732       12.8671340139       19.6272667239
  H        -1.8708825395       12.2227219209       17.6351032132
  H        -2.7652413162       11.5848728925       18.9941004466
  C        -1.8771486256       13.2798792254       21.0111249344
  H        -0.7412073239       12.0433995904       19.8104769810
  H        -0.6665831764       13.5621995466       19.2089905074
  C        -1.0752520186       12.8600289803       22.2312994265
  H        -2.9080684510       12.9235577408       21.1524368365
  H        -2.1428219701       14.3642142477       20.9930575378
  C         0.1997284134       13.6954795550       22.3667126368
  H        -1.6975797299       12.9770088587       23.1201913216
  H        -1.0605101245       11.7762075963       22.1028461421
  C         1.3645117910       12.9771803497       23.1939531110
  H         0.7055069463       13.9150039001       21.4016458330
  H        -0.2102769242       14.6117397493       22.8005385048
  C         1.6553058627       11.5864330673       22.6063575032
  C         0.8004062423       12.2706722222       24.4302675192
  C         2.5832613788       13.9554453602       23.2957354553
  C         1.2145462558       10.4724141816       23.2818838453
  C         2.1760870578       11.2239708844       21.3398201643
  C         0.6542821023       10.8885627768       24.5235515794
  C         0.3089941378       12.9197659577       25.5775179811
  H         2.8616753742       14.2505708556       22.3187630421
  H         2.4595078711       14.8154382219       23.9218579312
  C         3.8319502160       13.2744509190       23.7935350109
  S         1.5098486921        9.0210891416       22.4585806289
  C         2.1651979312        9.8627691962       21.1736699259
  H         2.6447883609       11.9745377145       20.7551539375
  C         0.1469160280       10.2964939747       25.6499936702
  H         0.3954379799       14.0289689830       25.6591111648
  C        -0.2188317817       12.3024670191       26.7125070766
  H         4.2869307256       12.6523626455       23.0094937677
  H         3.4464035782       12.5906456079       24.5199323508
  C         4.9366696107       14.2457432632       24.2836734181
  C         2.4913457076        9.2841506874       19.8300866900
  C        -0.3211523510       10.9794969281       26.8035886962
  H         0.0737683154        9.2391728393       25.6526774016
  C        -0.6892514616       12.7324973990       27.9491826566
  H         5.4627240028       13.6691509642       25.0329459637
  H         4.3519726400       15.1114369620       24.8563407508
  C         5.8059396171       14.9619844267       23.2325933197
  C         2.5390773120        7.8968984780       19.4669919578
  C         2.8143752344       10.2242569884       18.7125657733
  C        -0.7439416055       10.2270084663       28.0169769125
  C        -1.0558346089       11.6294720334       28.6526040514
  S        -0.8151029705       14.2240331809       28.8572081433
  H         6.5101444398       15.6995545432       23.6069274826
  H         5.2711961265       15.6012297995       22.5640792898
  C         6.5351217098       13.8659592697       22.2586371095
  N         2.3673641109        6.8949313837       20.3619968745
  C         2.7893068095        7.4013778616       18.1936344582
  C         3.0302238168        9.7565769725       17.3950254603
  H         2.7469168631       11.2303170614       18.8920154173
  C         0.4760439788        9.5877419148       28.6881951706
  C        -2.0426518160        9.4046760606       27.8657686934
  C        -1.3908466335       11.9954030566       29.9733655208
  C        -1.3495374330       13.3967342351       30.2388573603
  H         7.5640121049       14.2271294284       22.1697126963
  H         6.5765585480       12.8265672044       22.6109520399
  C         5.8100137453       13.8279444226       20.9031878257
  S         2.3080129478        5.4877812716       19.6098891451
  N         2.6697966071        6.0394358822       18.1174283277
  C         3.0340723235        8.3071462479       17.0768576111
  H         3.2058743338       10.4834726581       16.5855618518
  H         0.7645918893        8.7556302477       28.0326451051
  H         0.1188039951        9.1088426581       29.5902285239
  C         1.6811834538       10.4614175521       29.1937602826
  H        -1.7255855607        8.6244470826       27.1282561668
  H        -2.2148213288        8.9462980607       28.8413688575
  C        -3.3983604375       10.1660509947       27.4879972040
  H        -1.7587056560       11.2974484973       30.6117880082
  C        -1.6718964985       14.0785719028       31.5136716846
  H         5.8400875776       14.7748349318       20.5194054137
  H         4.6495879277       13.6325302358       21.0275590816
  C         6.3378203695       12.8500455143       19.8751276175
  C         3.1678615420        7.6821461417       15.7625282531
  H         1.9748167870       11.0112614305       28.3046460113
  H         1.4239275616       11.2278565857       29.8665741093
  C         2.8098241160        9.6085407767       29.7293600629
  H        -3.2619855117       10.7896470850       26.5701504011
  H        -3.6574496998       10.8554064623       28.2793314506
  C        -4.5830964843        9.2175480525       27.2652001647
  C        -1.7157859080       15.4490524963       31.6745084557
  C        -2.0359264387       13.2125453670       32.6576407472
  H         7.0831992915       12.3046212926       20.3761410397
  H         5.5442207454       12.0749637410       19.6009737165
  C         6.9065576460       13.4596057658       18.6825863819
  H         2.7705765947        6.7015306643       15.7033888275
  C         3.6061659469        8.1741846745       14.5892777646
  H         2.9063725136        8.7737937271       29.0689186817
  H         2.4624478029        9.1285419181       30.5940343781
  C         4.1303782173       10.3017912250       29.8741828214
  H        -4.3101170493        8.4974346070       26.4450747552
  H        -4.7748123943        8.6017377944       28.1897150061
  C        -5.8722379403        9.9073489360       26.8110253808
  N        -1.4695183245       16.3744866301       30.6590193282
  C        -2.0706960083       16.0232437473       32.8783761262
  C        -2.2826674387       13.8137912302       33.9389642019
  H        -2.1728372048       12.1616701984       32.4772936978
  H         6.1668691173       13.8722317851       18.0705915312
  H         7.5201440248       14.3335358283       19.0074424490
  H         7.6064193240       12.8679468614       17.9983883557
  S         4.0602432794        9.8124969590       14.1881600143
  C         3.8135924089        7.1610236562       13.5006062683
  H         4.3745441865       10.8907771828       28.9442415238
  H         3.9858112885       10.9949746326       30.6888356589
  C         5.2551593608        9.3194398926       30.1159134259
  H        -5.8117595760       10.9609275946       27.2279630435
  H        -6.8217393379        9.5185006652       27.1860932655
  C        -5.7984051260       10.1336573290       25.2536940632
  S        -1.6998610652       17.8668167297       31.3058126658
  N        -2.2320306809       17.3650366830       32.7244038499
  C        -2.3168181425       15.2802651420       34.0538908719
  H        -2.5488659903       13.1974252293       34.8186800403
  C         4.3453207174        9.1130226995       12.5325397818
  N         4.3278119081        7.7811147800       12.4128376978
  O         3.6669915368        5.9505390480       13.6387760158
  H         6.1505660775        9.7804235515       30.5999407132
  H         5.6184718509        8.8690277262       29.1768520326
  C         4.8355903165        8.0635357882       31.0308389697
  H        -4.9352531803       10.6096415612       24.9096809760
  H        -5.9252901017        9.1216000206       24.7703220781
  C        -6.9072059795       11.0901935095       24.7778999260
  C        -2.5712405907       16.0325122358       35.2347184457
  S         4.8295872715        9.9941306425       11.0860738786
  C         4.5042135104        7.0675967822       11.1654775879
  H         4.3714992439        8.3751917261       31.9665370858
  H         4.0063481956        7.4835905961       30.5221023107
  C         6.0889183686        7.1707192340       31.2750564626
  H        -6.5797136628       11.5935226699       23.7932257706
  H        -7.1263763028       11.9185461345       25.4183494251
  C        -8.2256289668       10.3721946862       24.5808240577
  H        -2.2626844540       17.0803816189       35.1186515211
  C        -3.1401297527       15.8192140992       36.4591456835
  H         5.2894487323        7.5286949797       10.5515500891
  H         4.9952175750        6.0738949096       11.2917030184
  C         3.2548070025        6.9877781261       10.3713229557
  H         5.6804331074        6.2491018218       31.7067995854
  H         6.7134127848        7.7101139109       32.0406200487
  C         6.9545467571        6.7934766289       30.0563786111
  H        -8.7282894454       10.8030563455       23.7482281057
  H        -8.2395212543        9.3355341889       24.2057020374
  C        -9.2279563763       10.4690446245       25.6864719520
  S        -3.8670807040       14.3677683779       36.9981646037
  C        -3.1931706022       16.9569968876       37.3223207350
  H         3.1348224205        7.8156458847        9.6832556611
  H         3.1685023561        6.0653527205        9.8882014784
  H         2.4153743479        7.1389198751       11.0107155453
  H         6.3991950260        6.6056455393       29.1413552398
  H         7.4901366270        5.8454298103       30.3557451801
  H         7.6689473450        7.5843189195       29.7356405021
  H        -9.2460768291       11.4294446247       26.2051786082
  H        -8.9681015954        9.6172188340       26.3684680493
  H       -10.3028809049       10.3225525299       25.3647880145
  C        -4.1927562946       15.3189237177       38.4755099062
  N        -3.8084089070       16.5992935905       38.4304053574
  O        -2.7027519550       18.0674343943       37.0988870472
  S        -5.0205046143       14.6871130783       39.9035664656
  C        -3.9266105833       17.5243571937       39.5795337375
  H        -4.0898178576       18.5267002257       39.1981495981
  H        -4.8517963350       17.3716914672       40.1637094376
  C        -2.7819862546       17.4700862527       40.5516660603
  H        -2.8277477518       18.3594542808       41.2758492678
  H        -2.5767358065       16.5346800980       41.1174367094
  H        -1.8685269265       17.6746998281       39.9029724429
