352
i=
  H         4.4695672598        1.0387338974       12.7282103839
  C         4.0417402946        1.9506206446       12.9894866358
  H         4.8136581953        2.7064175025       13.1365681035
  C         3.2426363037        2.3347835210       11.8028945906
  C         3.1242134757        1.7765659882       14.1934008560
  C         4.0394395671        2.8327685652       10.6523471771
  H         2.5959091833        3.0787610086       12.1047269146
  H         2.5651135362        1.5193053197       11.5996957323
  H         2.2280400167        1.2258249102       14.1234084027
  H         2.8114869017        2.7912508748       14.5847239263
  H         3.5971765141        1.1979680057       14.9096537651
  C         4.7794625396        1.6799521537        9.9640914138
  H         3.4436841803        3.3673222280        9.9706955017
  H         4.6760143095        3.6783824495       10.9164648295
  C         5.3582390806        1.8428905522        8.5892749198
  H         4.0254147855        0.8717728506        9.8684798937
  H         5.5471178116        1.2298046300       10.5486664301
  C         6.6226394844        2.7561948841        8.7778501096
  H         4.5673603952        2.2318200816        7.8914404915
  H         5.6503481950        0.8934449788        8.1052337852
  C         7.9460410899        1.9632690218        9.0891146125
  H         6.7909598960        3.2596919111        7.8349686756
  H         6.4226525907        3.5760240390        9.4435843390
  C         9.2760263442        2.7897016182        9.1667603612
  H         8.0728547835        1.2153081469        8.3294646181
  H         7.8624758706        1.4254980328        9.9896211325
  C         9.0841517639        4.1818078994        9.8545485085
  C         9.6838590618        3.5212217730        7.9179011408
  C        10.3786900769        1.9632196882        9.8884765542
  C         9.2899920909        5.2821811154        9.0534005962
  C         8.4000025386        4.5843404017       11.0404834270
  C         9.7356091730        4.8881473548        7.8270900007
  C         9.9951025221        2.9542332371        6.6599500916
  H         9.9644025739        1.4899277115       10.8168328979
  H        10.5229071162        1.1285501607        9.2151231772
  C        11.6763368395        2.7385230861       10.0034395336
  S         8.9167973187        6.8166673452        9.7802870806
  C         8.1879077653        5.9962140895       11.1622909401
  H         8.0521635745        3.7813823783       11.6200653670
  C         9.9577944582        5.5449440459        6.6453958232
  H        10.1095681051        1.8811719323        6.7046517630
  C        10.2964903828        3.5631912128        5.5171975625
  H        11.4684613117        3.6676587466       10.5238427570
  H        11.9772083407        3.0731917981        9.0275141125
  C        12.7370071062        2.0473223670       10.8065309190
  C         7.6300612182        6.6859217064       12.4119444352
  C        10.2614441288        4.8941179416        5.4632523668
  H         9.8167882849        6.6255569323        6.5937732183
  C        10.6958763229        3.2009803649        4.2467310140
  H        13.6993770310        2.5236886492       10.4711005412
  H        12.8307713403        0.9767705098       10.6005599700
  C        12.2785595176        2.2488940341       12.2317845617
  C         7.4142358697        8.0256116812       12.5938850906
  C         7.2046148054        5.8372155002       13.5890273013
  C        10.5960708649        5.5625421571        4.1920640503
  C        10.8015372368        4.2792938425        3.4124723887
  S        10.9606404891        1.7259353340        3.4941733601
  H        12.0799964354        3.2667649058       12.5384438689
  H        11.4323663125        1.7033410285       12.4591194641
  C        13.3661604872        1.8657959262       13.2792506470
  N         7.8057760057        8.9635026265       11.6880445235
  C         7.1207661185        8.5956153578       13.8361063669
  C         6.8009999688        6.3494820499       14.7980439690
  H         7.2960175240        4.7935694195       13.5921846841
  C        11.8382757680        6.4841039704        4.3163453568
  C         9.3914001936        6.2181415953        3.5904664813
  C        11.2180986188        3.9750194093        2.1444319549
  C        11.2308007314        2.5976713589        1.9913873928
  H        14.0906664426        2.6660808875       13.4814619640
  H        14.0747900180        1.1052129415       12.8603986704
  C        12.8376930837        1.3795811902       14.6024713606
  S         7.6872323027       10.4724943561       12.3645383350
  N         7.2301726386        9.9841822184       13.9001604390
  C         6.7528191926        7.7878724446       14.9514257877
  H         6.7534882873        5.6925881560       15.6215803241
  H        11.5210269533        7.3335862947        4.8801692768
  H        11.9495935763        6.8044241971        3.2640180273
  C        13.1490326175        5.7693325495        4.7285706947
  H         9.0654800351        7.0964537071        4.1403761911
  H         9.7332531152        6.5942070345        2.5795417097
  C         8.1191780112        5.2690948669        3.5296079562
  H        11.4719380466        4.7724218570        1.3909382144
  C        11.5312443126        1.8895560568        0.6844731312
  H        11.8141857587        0.9914103178       14.4326395664
  H        13.4750013462        0.5635637100       14.8852645118
  C        12.9342945326        2.4626709808       15.7301924934
  C         6.5186417785        8.3829247040       16.2222715567
  H        13.0509311646        5.4784135419        5.7722237850
  H        13.4236808874        4.9030525172        4.2025598918
  C        14.3736056188        6.7855501185        4.6907588151
  H         7.9803254791        4.9084012303        4.5693970118
  H         8.2720618031        4.3281840408        2.9534315147
  C         6.8734039313        5.8657707887        2.8861967984
  C        11.6387766430        0.4822187473        0.4771644761
  C        11.9508734189        2.7169955917       -0.5021166913
  H        12.3037999284        3.2345616314       15.3520244862
  H        13.9829559686        2.7956687509       15.7837788457
  C        12.5557745808        2.0430487609       17.1752637891
  H         6.6159840827        9.4078307288       16.2394560899
  C         6.2617969373        7.9137575888       17.4884930951
  H        14.3407537124        7.4925091333        5.5673223120
  H        14.4334711117        7.2835842219        3.6905357146
  C        15.6786670405        5.9720301872        4.8714967521
  H         6.5008619580        6.6335973770        3.4984795653
  H         7.0455963961        6.3222625322        1.9327023079
  C         5.5691505555        4.9880008056        2.7810676591
  N        11.3434813160       -0.4462194894        1.4129026519
  C        11.9681577812       -0.0832624262       -0.6864078857
  C        12.1191675536        2.0890242140       -1.7101282892
  H        11.7948914423        3.7796007886       -0.4898487258
  H        11.6744547283        2.5130718009       17.5399586492
  H        13.3334031702        2.2422442732       17.9255158545
  H        12.3314328311        0.9729989947       17.2338297387
  S         6.0117316934        6.2488973939       17.9786207673
  C         6.3728330866        8.8936425218       18.6184885468
  H        15.7681411424        5.0367822996        4.2701357803
  H        16.4102694035        6.6418155461        4.4416396614
  C        15.8810384477        5.6516179516        6.3890357331
  H         5.3185575851        4.7863546599        3.8391533813
  H         5.7527397141        3.9864457347        2.1995604176
  C         4.2594308108        5.5754131373        2.3715791984
  S        11.3760409006       -1.9602873475        0.7394799810
  N        11.9529019170       -1.4401146253       -0.6805409387
  C        12.2999302911        0.5832198632       -1.8481125622
  H        12.2613941064        2.6735290128       -2.6170376873
  C         6.0269009096        6.9511267706       19.6601777147
  N         6.1181025391        8.2683987508       19.7915154881
  O         6.6148185401       10.0616411547       18.4200147374
  H        15.7659213663        6.5475523268        6.9176349913
  H        15.0746908168        5.0619808011        6.8210054119
  C        17.1445404189        4.9472349607        6.8111880206
  H         4.2402355342        5.4326612146        1.3002370068
  H         3.4734558511        4.9585123708        2.7972381524
  C         3.7997158138        7.0065446064        2.6837858633
  C        12.4710171824       -0.2256853533       -3.0841539697
  S         5.7858288695        5.9424582897       21.0682110468
  C         6.1780086035        8.9439626257       21.0547448167
  H        16.6717811327        4.3275599671        7.6253025320
  H        17.5449865125        4.1395362699        6.1385468572
  C        18.2487895909        5.6591320682        7.5262956021
  H         4.3813582015        7.3888811053        3.5415685911
  H         2.6880326196        7.0576731560        2.9454899363
  C         3.9909328714        7.8649368993        1.4198854013
  H        12.0947735802       -1.2178561929       -3.0504359449
  C        13.1087712985        0.0965353768       -4.2285450365
  H         5.4252243649        8.7485972566       21.8262560289
  H         6.0108451105        9.9407472325       20.7552537232
  C         7.5940003771        8.8223963952       21.6535026482
  H        18.6129867344        4.9975509302        8.3365200455
  H        17.8832791622        6.6283762178        7.8810707468
  C        19.4919520902        5.8596843078        6.6504681603
  H         4.6213378930        7.2999372676        0.7352017241
  H         3.0930422663        8.0259481510        0.8604569153
  C         4.5836699532        9.2259574628        1.6151546035
  S        13.8073361558        1.5721461440       -4.6615033192
  C        13.1787995389       -0.9448084015       -5.2411282135
  H         8.3043778053        8.4989620168       20.9381857546
  H         7.5834653970        8.1108699743       22.5080211749
  H         7.9927752086        9.8387933486       21.8678597279
  H        19.4168245442        5.2007960539        5.8024956100
  H        19.5422683041        6.9303364842        6.4195664564
  H        20.4169332978        5.6379784115        7.2549810378
  H         3.9484757605        9.7091769561        2.3983480964
  H         5.6117929445        9.1571367022        1.9505851459
  H         4.6052779736        9.7563160126        0.7106514315
  C        14.2972736422        0.8230735437       -6.1436331812
  N        13.8957795987       -0.4755144390       -6.2522521914
  O        12.6514775583       -2.0836745335       -5.1256918822
  S        15.2198636763        1.5190695913       -7.4666806098
  C        14.2023142553       -1.2655956507       -7.4666283459
  H        14.4811090656       -2.2206022441       -7.0403378964
  H        15.0503527610       -1.0067653684       -8.0963147500
  C        12.9137381175       -1.3827843269       -8.3084133494
  H        11.9853026819       -1.7593829458       -7.8192486726
  H        13.1473163054       -2.0542547005       -9.0501416137
  H        12.7481195996       -0.3435491801       -8.7551788027
  H        -3.3490067793       14.9493236813       16.3232480634
  C        -3.1258980490       13.8746467730       16.2623815003
  H        -4.0591599588       13.3443429428       16.6598798065
  C        -1.9951776844       13.7195736991       17.2779208059
  C        -2.8677448000       13.5473950978       14.8616456904
  C        -2.3783714787       14.1788569438       18.7165997880
  H        -1.8239593905       12.6202577604       17.2651242452
  H        -1.1691252376       14.3485225249       16.9003335320
  H        -3.6521075126       12.9540671473       14.3570157499
  H        -2.8881308671       14.4151866238       14.1481202024
  H        -1.9834413778       13.0405228866       14.6794631929
  C        -2.0135421368       13.0615786437       19.7404811047
  H        -3.4198897535       14.3107368527       18.8044926746
  H        -1.8482747462       15.1505530184       18.8567493353
  C        -2.4281460690       13.3980982349       21.2056245205
  H        -2.3649884043       12.0452809277       19.5158023835
  H        -0.9640773344       13.0907261359       19.6651211386
  C        -1.4197726210       12.8625011095       22.2369455787
  H        -3.3247237518       12.9295550980       21.4563035407
  H        -2.5874412412       14.5061432213       21.3213845043
  C        -0.0784009534       13.6830060176       22.4191686508
  H        -1.9791081879       12.6008517495       23.1264880792
  H        -1.0106735491       11.8999688451       21.9964577776
  C         1.0144950633       12.8853318876       23.1857046132
  H         0.3537870931       13.9007666207       21.3989328090
  H        -0.2423270331       14.6578195442       22.8260611516
  C         1.3870409225       11.5480671995       22.6155455122
  C         0.4969989789       12.2910780741       24.4050158779
  C         2.2666860970       13.8124591103       23.3599820599
  C         1.0912885458       10.4785323129       23.4417483969
  C         1.8431360931       11.1092120842       21.3561969622
  C         0.5012764033       10.9703629289       24.6131921031
  C         0.1158459737       13.0696038942       25.5520092605
  H         2.5334233046       14.3082771446       22.3607050087
  H         2.1435379165       14.6227958614       24.0161814672
  C         3.5118171784       13.0644233626       23.9606887824
  S         1.3999331160        8.9600808482       22.7838004902
  C         1.9513738607        9.7345569536       21.2883272377
  H         2.1369786167       11.8248575238       20.5975251410
  C         0.1065113763       10.4250244026       25.8056722222
  H         0.3210867108       14.1062175276       25.7395043502
  C        -0.2553788433       12.4708043428       26.7286329399
  H         3.7533257533       12.0776489526       23.5253536666
  H         3.2292344976       12.8700469358       25.0045097587
  C         4.7307366545       13.9718123764       23.8812126868
  C         2.5500302199        8.9431046112       20.0991095415
  C        -0.3149644187       11.1123374928       26.8738117738
  H         0.1148851143        9.3565123806       25.8703578678
  C        -0.6501320356       12.9111050780       28.0196034781
  H         5.4478030667       13.4743702577       24.4894271488
  H         4.5398504710       14.9289943689       24.4552251785
  C         5.1875031281       14.2635802548       22.4251613188
  C         2.4729728069        7.5133322517       19.8835835460
  C         3.1039922481        9.7925189712       18.9819802196
  C        -0.7868189878       10.4507918177       28.2282212158
  C        -0.9650368821       11.8745760459       28.8725531256
  S        -0.8063218778       14.5008420789       28.7408426318
  H         6.1776140173       14.8062378830       22.4990947590
  H         4.5571703364       14.9475795707       21.7573535529
  C         5.5782384863       13.0022297564       21.6478033365
  N         1.9540701154        6.5898729671       20.7071125338
  C         2.7095347274        7.0827201204       18.6303812732
  C         3.2436431607        9.2220866664       17.7386960111
  H         3.1556791105       10.8464229643       19.1455343995
  C         0.3600880637        9.6405593982       28.9288048081
  C        -2.0628794098        9.7110701379       28.0390240864
  C        -1.3118914246       12.3636379207       30.1820119131
  C        -1.3201341387       13.7516046947       30.1926380321
  H         6.2961295839       12.3385470144       22.1486122127
  H         4.6276066603       12.3951830622       21.4943561626
  C         6.1204997465       13.2337923064       20.2725118176
  S         2.1460001485        5.1277781188       20.0469979308
  N         2.5940579286        5.7120345547       18.5920098690
  C         3.0202589750        7.8768496218       17.4784841071
  H         3.7062631235        9.8686932360       16.9780550593
  H         0.4810686728        8.7215819845       28.3022968060
  H         0.0211628047        9.3087709526       29.9390748589
  C         1.7005504344       10.4888475060       29.0314034952
  H        -1.9552629867        9.0149417847       27.1832917545
  H        -2.1179066764        9.1778630626       28.9610457647
  C        -3.2866203876       10.6556033135       27.7732672025
  H        -1.4893589077       11.6790598906       30.9911314316
  C        -1.5420773354       14.5238082779       31.4596378089
  H         5.7368161761       14.2266423558       19.8974393459
  H         5.7905068565       12.5246913762       19.5697697124
  C         7.6769924706       13.0503575185       20.2964788335
  C         3.0367061182        7.3496116009       16.1622428972
  H         2.1571365951       10.8338414975       28.0897993415
  H         1.6270044678       11.4801277970       29.4876836821
  C         2.7319661719        9.6946425807       29.9594643814
  H        -3.2408749679       11.2728208481       26.8908084480
  H        -3.6039456368       11.2544160204       28.6376594414
  C        -4.5727268778        9.8232829562       27.5824322703
  C        -1.6613662867       15.9447415903       31.5143295701
  C        -1.8487601273       13.7795097332       32.7201367699
  H         8.1508543283       13.7456151632       20.9548887022
  H         7.9980768414       12.0666279921       20.6082327240
  C         8.1969403211       13.1459882279       18.8312014114
  H         2.6386688215        6.2959462665       16.1316840365
  C         3.3395967615        7.7644597467       14.8381318898
  H         2.8454043557        8.6879001511       29.4616724262
  H         2.3735875885        9.6109108344       30.9416023717
  C         4.0968217404       10.3211807862       30.0363805065
  H        -4.4111834814        9.1277994272       26.7451894917
  H        -4.9120310285        9.2052577010       28.3888882685
  C        -5.6737674629       10.8066914971       27.3108549103
  N        -1.3998209501       16.8151073199       30.4899270304
  C        -2.0383316365       16.5934442723       32.6805765559
  C        -2.1395600959       14.5005189174       33.8901577551
  H        -1.8776648166       12.7071120909       32.7578452648
  H         8.0061780108       12.1516281076       18.3459729720
  H         7.7730320241       13.9509586653       18.2762782487
  H         9.2619130494       13.2857935687       18.8148532439
  S         3.6412603239        9.4573829730       14.3959015102
  C         3.4008441470        6.8052474217       13.7155215751
  H         4.3943144388       10.9968148975       29.1467967485
  H         4.0255757023       10.9732989090       30.9542003357
  C         5.2297189244        9.2666213705       30.2881060719
  H        -5.4006523317       11.6457073307       26.6544972198
  H        -5.9058816096       11.2230650992       28.3551721786
  C        -6.9946599855       10.1082242336       26.7481204798
  S        -1.3365515335       18.3231112932       31.0122456610
  N        -1.8687301764       17.9952590608       32.4960799513
  C        -2.2385645571       15.9545331963       33.9151619646
  H        -2.1965277502       13.9877925645       34.8167513872
  C         3.8542472545        8.7406648151       12.8061576313
  N         3.8877125365        7.4016518500       12.6543233684
  O         3.3478876079        5.5761146036       13.7661263318
  H         6.2120067348        9.7211269021       30.4621323731
  H         5.4206429180        8.9073521487       29.3181289880
  C         4.8805802538        8.1685102377       31.2505043222
  H        -6.7845021141        9.1393481210       26.4841895409
  H        -7.7644497199       10.2080461342       27.5343536340
  C        -7.5541968362       10.8435988995       25.5471341449
  C        -2.5534692273       16.7977406612       35.0310305863
  S         4.4028575496        9.7537069948       11.4223674488
  C         3.9993538229        6.7588786062       11.3755688863
  H         4.5814562654        8.4993680497       32.2738523231
  H         3.9947940310        7.6285563718       30.9231599551
  C         5.9828045468        7.1225879729       31.4408431997
  H        -6.7723112525       10.9888217092       24.8479887679
  H        -8.0618002315       11.7792455046       26.0311234455
  C        -8.6691562915       10.0709830374       24.9001145831
  H        -2.3924135599       17.8251510685       34.8492076417
  C        -3.0411187367       16.4411825167       36.2578220161
  H         4.6587734455        7.1753711021       10.6678691931
  H         4.3386918611        5.7970658014       11.5403182582
  C         2.6470785558        6.7016022273       10.6962974168
  H         5.7817807976        6.6618743842       32.4401143509
  H         6.9785989608        7.6124057678       31.6220965767
  C         6.1673866851        5.9722656574       30.4282321838
  H        -8.9113278696       10.5834894687       23.9341640468
  H        -8.1700133998        9.1666903174       24.7381918446
  C        -9.9256596784        9.9601697391       25.7043465637
  S        -3.4411102452       14.8775812301       36.8723929876
  C        -3.1833830036       17.5392006061       37.2243080062
  H         2.4248702567        7.6541790033       10.2952296585
  H         2.6246685511        5.8743366379        9.9736171315
  H         1.9710815786        6.5077540098       11.4984070357
  H         6.8958119707        5.2032862658       30.7927738641
  H         6.5735201229        6.2897084716       29.3892760039
  H         5.1246707737        5.4981235444       30.2970025938
  H        -9.6599791845        9.4528599693       26.6429421113
  H       -10.7463376765        9.3963362036       25.2652183347
  H       -10.2702760871       10.9492079008       25.8881194013
  C        -3.5320830730       15.6841396308       38.4704409435
  N        -3.4725159952       17.0453982819       38.4180006691
  O        -2.8536807134       18.7098326864       36.9564031412
  S        -4.2675572880       15.0958988591       40.0008191217
  C        -3.4642479679       18.0143896628       39.5153006900
  H        -3.7569937511       18.9630594672       39.1537651710
  H        -4.3213723765       17.8463628067       40.1898182073
  C        -2.1193080607       18.2602833508       40.2865741950
  H        -1.2801364125       18.1949676661       39.5564851169
  H        -1.8857476332       19.3158304274       40.7216803181
  H        -1.9079855573       17.4936661579       41.0567704906
