352
i=
  H         2.3227408161        1.0065108345       12.2410718599
  C         3.0438394071        1.8258998987       12.3011625525
  H         3.9958512958        1.3385376157       12.2820813871
  C         2.9464538580        2.9102556073       11.2350659586
  C         3.0570735717        2.4346045657       13.6434578486
  C         4.0864647964        2.9191403718       10.2027275153
  H         2.9265776577        3.8669692469       11.8108501809
  H         2.0074689037        2.9662198339       10.7984200751
  H         3.9904881837        2.9613162904       13.8353220277
  H         2.9768901179        1.6204739119       14.3776741898
  H         2.1897187723        3.0162770920       13.7652918456
  C         4.2183490269        1.5103112812        9.5477452766
  H         3.8110008098        3.5990282986        9.4089579868
  H         5.0593786770        3.2856242876       10.6858085158
  C         5.0390431883        1.6390143911        8.2915645430
  H         3.2631855411        1.0959964120        9.2136963853
  H         4.6515380767        0.7653905137       10.1771936821
  C         6.2962551845        2.4520333277        8.2493744388
  H         4.4328008756        2.1355938890        7.5672833830
  H         5.2979450703        0.6626419619        7.8647338139
  C         7.5378915071        1.7126079497        8.8226461073
  H         6.3277030420        2.7273811591        7.2007407667
  H         6.1375343574        3.3716832443        8.7802424944
  C         8.7225472771        2.6102492367        9.1536137699
  H         7.7324751311        0.8831060710        8.1076132095
  H         7.1491318980        1.1879565569        9.7033232962
  C         8.3864550149        3.9154591880        9.9387437462
  C         9.2433786909        3.3029250562        7.9559951296
  C         9.8734252713        1.9258210723        9.9054016363
  C         8.8260285875        5.0239553509        9.2086760632
  C         7.8410952388        4.2642007673       11.1774541407
  C         9.2270876658        4.6669247426        7.9563118300
  C         9.7358394098        2.7444008403        6.7932909912
  H         9.4059652442        1.4858956212       10.7566717700
  H        10.1697141689        1.1138321299        9.2403957531
  C        10.9461522728        2.8242828380       10.3632489596
  S         8.7986185559        6.4610855147       10.0954701451
  C         8.0983111508        5.6256102894       11.4176369500
  H         7.3995774556        3.5167636534       11.8583527805
  C         9.8264384052        5.2955377327        6.8793207117
  H         9.7104993986        1.6864039756        6.7977951901
  C        10.2774170242        3.4107931988        5.7390492046
  H        10.7184521255        3.6345316723       11.0413125682
  H        11.4281148329        3.3667558264        9.5778654468
  C        12.1126973514        2.0911641484       11.0951449595
  C         7.8968159074        6.2807417787       12.7934260778
  C        10.3789779777        4.7279485990        5.7179962210
  H         9.9005090760        6.3488739130        6.9891001115
  C        10.7887758478        3.0889823379        4.4964946924
  H        13.0333943119        2.4563051905       10.7444911914
  H        12.2489276058        1.0508672778       10.7132438338
  C        11.9313887447        1.9995029715       12.6392661743
  C         7.9484760417        7.6809241616       13.0169025329
  C         7.4389155303        5.5226999845       14.0255377270
  C        10.9516509477        5.5055544147        4.5444462401
  C        11.1305424609        4.1981646731        3.7749017875
  S        11.0611073189        1.6072659456        3.7282527546
  H        11.2450400340        2.7817658463       12.9120529348
  H        11.4259768219        1.0639288773       12.9059806117
  C        13.3193302693        2.0854197868       13.3385516773
  N         8.0493366035        8.6016496272       11.9697450949
  C         7.6187753488        8.2318354157       14.2656742573
  C         7.1642106571        6.0627526835       15.2823379348
  H         7.3871441306        4.4360038279       13.8879200796
  C        12.3570035141        6.2354242055        4.8072737526
  C         9.8171486871        6.4445718799        3.9927155416
  C        11.6679095212        3.8579458244        2.5453434742
  C        11.5970750660        2.5245269516        2.3033037457
  H        13.5005248860        3.1071579438       13.6987457155
  H        14.0763757771        1.6941286840       12.6807033441
  C        13.3795664621        1.2581174688       14.6388274363
  S         7.8847166682       10.0494600797       12.6801058657
  N         7.6828587780        9.6447149695       14.1948941687
  C         7.2957409090        7.5183343519       15.4622924718
  H         6.8122358482        5.3969098100       16.0833529894
  H        12.1553872694        7.0687250964        5.5488502304
  H        12.6899004163        6.8013136342        3.8862234943
  C        13.5504854803        5.4827622647        5.3412489256
  H         9.3681218569        6.8985972496        4.8875709444
  H        10.3204917807        7.2262861438        3.4235675740
  C         8.7414684603        5.7392271046        3.1757862305
  H        11.9832382430        4.6668990173        1.8547048834
  C        11.9321067877        1.7885025292        1.0234833387
  H        12.9180898625        0.3003354267       14.5736973454
  H        14.4740449044        1.0387211102       14.7821668435
  C        12.6845624619        2.0177994133       15.7497078564
  C         7.0295674375        8.2421923527       16.6656317349
  H        13.2521287744        4.8867414656        6.1747303314
  H        13.9631011244        4.6926650060        4.6959888104
  C        14.7331321474        6.3623293780        5.7369074700
  H         8.3153450741        4.8902201654        3.7380247577
  H         9.1912683566        5.3021050078        2.2676905473
  C         7.5080205651        6.6743320685        2.8002980447
  C        11.9385700107        0.3791891972        0.7801797662
  C        12.0828104051        2.6099954874       -0.2088536530
  H        11.9804307165        1.3222089607       16.3156107500
  H        12.0217971391        2.7805500603       15.4060434400
  C        13.6338611623        2.7406017637       16.6562039683
  H         7.1997670604        9.2940461762       16.6129581837
  C         6.7628914290        7.7938132221       17.9407371616
  H        14.4754344784        7.0551168496        6.5539019677
  H        15.0468698665        6.9006227851        4.8549396315
  C        15.8368728906        5.5249049582        6.2718557020
  H         7.1664004439        7.2362766838        3.6255998086
  H         7.9058417330        7.3158918854        2.0607258162
  C         6.3554484330        5.9469484024        2.0720198631
  N        11.8639442621       -0.5922607759        1.7250617209
  C        12.2790118572       -0.1924841781       -0.4419334881
  C        12.2943553552        2.0057365040       -1.4231946272
  H        12.2025940967        3.7068865145       -0.1855295565
  H        14.3512342010        3.2744511155       16.0866643931
  H        14.1062567591        2.0787240810       17.3816227322
  H        13.1206545340        3.4747079324       17.2306411440
  S         6.4318420471        6.2175654896       18.4343923385
  C         6.6276977747        8.9093573048       18.9702897850
  H        15.6409648505        4.9774732987        7.1834548744
  H        16.0936123100        4.7525531129        5.5866776331
  C        17.1221961926        6.2846785390        6.4820894835
  H         5.9350628741        5.1711465207        2.7671873913
  H         6.6525178492        5.3930326241        1.1494182595
  C         5.1483726938        6.8642206676        1.7845564466
  S        11.9860068286       -2.0492466016        1.0410245250
  N        12.3521581939       -1.6100172758       -0.4525741158
  C        12.3188367143        0.5228155594       -1.6125255147
  H        12.3859563188        2.6561435567       -2.3040181776
  C         6.1759935597        6.9557150140       20.0234643044
  N         6.2619198343        8.3178898303       20.1412853698
  O         6.7356305659       10.1619850717       18.8313930196
  H        17.2764526043        7.0680814326        5.7762283802
  H        17.0199062513        7.0156397333        7.3547384460
  C        18.2363306056        5.2926513712        6.6361542814
  H         4.3941057172        6.2026325389        1.4146350636
  H         4.6419700750        7.1298737483        2.6969383309
  C         5.3677296696        8.0255228652        0.7427662500
  C        12.7211247712       -0.0965459723       -2.8374716795
  S         5.8483402553        6.0366377631       21.4857509359
  C         6.2182739563        8.9711080069       21.4257141256
  H        18.0155939283        4.6852822091        7.5084518349
  H        18.1966173023        4.5488414998        5.8824188828
  C        19.5441656373        6.0300846918        6.8769491228
  H         5.5522650554        7.6010648384       -0.2329886251
  H         6.2646644503        8.5422049007        0.9676150651
  C         4.0256340655        8.8212887146        0.5925759718
  H        12.4416293199       -1.0752438990       -2.6963593018
  C        13.2908136420        0.1949363805       -4.0302684615
  H         5.6277994505        8.5541557773       22.1948105569
  H         5.7298382295        9.9532834263       21.1559763445
  C         7.6307965699        9.0998295469       22.0798965413
  H        20.0393162950        5.6835743793        7.7509646043
  H        19.4204824802        7.1038852012        6.8986962571
  C        20.3210635905        5.8455763445        5.6394832406
  H         3.9304618368        9.1735057325       -0.4899131915
  H         3.2730443643        8.0132642406        0.6784978357
  C         4.0412555562        9.9222180343        1.7158843829
  S        13.8292573370        1.7668571018       -4.3557349144
  C        13.4841735337       -0.8254456972       -5.1272188087
  H         7.7051136711        9.9998071035       22.6602131336
  H         8.5007611238        8.9634779358       21.3452053765
  H         7.6266591243        8.3285528048       22.8437011625
  H        19.7866640770        5.8585642689        4.7224362263
  H        20.9801932624        6.6725188760        5.5888393888
  H        20.9100339090        4.9592892712        5.6816085533
  H         4.8003336123       10.6436469492        1.6086239900
  H         3.0429577303       10.3838562832        1.8751814511
  H         4.3038943404        9.3533068387        2.6156930474
  C        14.2584033025        1.1120338978       -5.9277061926
  N        14.0866616535       -0.1758133525       -6.1301510257
  O        13.2190462922       -2.0471740656       -4.9364209763
  S        14.9236213394        2.0445145781       -7.3242908424
  C        14.4391329741       -0.9584808949       -7.3241398458
  H        14.5455575837       -2.0655668168       -7.2438595024
  H        15.5180857708       -0.7928654835       -7.4976581415
  C        13.5797275790       -0.6025624641       -8.4771523576
  H        12.8707323524        0.0628439587       -8.1735890046
  H        13.0220936889       -1.4737998413       -8.8951793691
  H        14.0791801495       -0.0560278960       -9.2802653067
  H        -0.9580987400       15.0523414318       15.6130411194
  C        -1.7715807765       14.4424430717       16.0520124589
  H        -2.5459086408       15.1369541051       16.3540890630
  C        -1.1664467925       13.5621284728       17.1658408000
  C        -2.3699976208       13.5947327092       14.9161291769
  C        -1.7947031564       13.9507142733       18.5277227184
  H        -1.4766410709       12.5393087704       16.9755076377
  H        -0.0566107784       13.6832271261       17.2668890173
  H        -2.0458012211       12.5264539745       14.8606492565
  H        -3.4484025083       13.5426615727       15.0366163919
  H        -2.0977899452       13.9887331249       13.9082638914
  C        -1.4153025116       13.0891394758       19.6328371788
  H        -2.8976322066       13.9771267889       18.4844448691
  H        -1.4391753166       14.9269068328       18.7423737967
  C        -1.7731159654       13.6025910126       21.0502870947
  H        -1.8611723359       12.1257986051       19.4976183262
  H        -0.3403834564       12.8787222338       19.5015843448
  C        -0.8529179290       12.8898842370       22.1238633061
  H        -2.8237959130       13.4208985496       21.1278249931
  H        -1.6223013206       14.6652193182       21.0566374918
  C         0.3231477190       13.8064089990       22.4865419885
  H        -1.5178405662       12.7269774377       22.9350868422
  H        -0.5424393471       11.9451063474       21.6146208982
  C         1.4222236011       13.0355368635       23.1910953913
  H         0.8145628420       14.3120085561       21.6603040430
  H        -0.0385954178       14.6197186211       23.1083608605
  C         1.8016301798       11.7403874026       22.4048541232
  C         0.9510645150       12.1967787511       24.3483907576
  C         2.6586800248       13.8802121622       23.4244265153
  C         1.6196803732       10.5959811278       23.1692917300
  C         2.3225342725       11.4766270674       21.1313240652
  C         1.0623503148       10.8709614951       24.3796786673
  C         0.5220396019       12.7590298542       25.4909240950
  H         2.8302609660       14.3551441423       22.4967845982
  H         2.4823972467       14.6386652578       24.1334936094
  C         3.9002105534       13.0845905797       23.7007313456
  S         2.1239630095        9.1534255697       22.3346245692
  C         2.6053848554       10.1515930227       21.0311274931
  H         2.4708694749       12.2726944652       20.4717969680
  C         0.6097283962       10.1611024767       25.4867707820
  H         0.5724065446       13.8358700996       25.4544628905
  C         0.1171487154       12.0868884268       26.6091391407
  H         4.2718473712       12.4290356036       22.9285787115
  H         3.7531778890       12.3491445226       24.4756716738
  C         4.9524999165       14.0374596236       24.2599180409
  C         3.2458006283        9.4565828311       19.8055904135
  C         0.0731095647       10.7343132328       26.6471157985
  H         0.5707278566        9.0983391016       25.4133095683
  C        -0.2634482920       12.4810319114       27.8185928983
  H         5.4582849635       13.3907809835       24.9273211392
  H         4.4920245706       14.8693596179       24.7736384491
  C         5.7864233367       14.7113305487       23.1410081622
  C         3.0707958141        8.0971241799       19.5032485395
  C         3.5682629252       10.2563017882       18.6123345990
  C        -0.4357063811       10.0105531145       27.9166213097
  C        -0.5579354095       11.3685395339       28.6453570638
  S        -0.7094402374       13.9344555785       28.5654380337
  H         6.2566379085       15.6202027934       23.4456570122
  H         5.0049821335       14.9124047934       22.3351180270
  C         6.8092802321       13.7947395722       22.5128275553
  N         2.7563766320        7.1117835238       20.4197242439
  C         3.2411520392        7.5599250325       18.2336773350
  C         3.8984259166        9.7042707174       17.3680066522
  H         3.6158444306       11.3275370411       18.8086940718
  C         0.6505465445        9.0431817036       28.4986306977
  C        -1.7722738387        9.2768731323       27.7647507137
  C        -0.9052094812       11.7577998759       29.9586166900
  C        -1.0199789282       13.1489643358       30.0647820488
  H         7.7962900285       14.2211533315       22.7400949807
  H         6.7378271197       12.8318649517       22.9611717052
  C         6.6931821799       13.8110669662       21.0198394566
  S         2.6031323658        5.6638821966       19.6833602697
  N         3.0155901357        6.1845112582       18.1815252754
  C         3.6415584629        8.2449655429       17.0725650656
  H         4.2405899382       10.3647515391       16.5750286165
  H         1.1341792052        8.4891679601       27.6666917780
  H         0.0758379365        8.2325789871       28.9965215722
  C         1.6817324377        9.6824997970       29.4316401833
  H        -1.6438794607        8.3103610666       27.2808434813
  H        -2.1811563445        9.1116839378       28.7539893387
  C        -2.9582227385       10.1371191069       27.1905589010
  H        -0.9483810251       11.0240994729       30.7387344810
  C        -1.3359059554       13.9192192445       31.3401851900
  H         6.6611693342       14.8737070569       20.8452506973
  H         5.6586483832       13.4662415187       20.8256793582
  C         7.6976266817       13.0150243902       20.2473683230
  C         3.7067393693        7.5835617009       15.8044968650
  H         1.8994665270       10.6834633893       29.0736895634
  H         1.1826139282        9.7560390517       30.4717343305
  C         2.9937379034        8.9136573731       29.6331395259
  H        -2.7313651946       10.6953597432       26.2891500619
  H        -3.2633676762       10.8815491547       27.9588259429
  C        -4.2167369111        9.3580984376       26.9395303460
  C        -1.5004037381       15.3151864434       31.4201604867
  C        -1.5584686552       13.1344383737       32.5943630634
  H         8.7031330081       13.3212863427       20.3509135126
  H         7.6516700447       11.9163008827       20.4239717333
  C         7.4609461998       13.1021227971       18.7370030742
  H         3.4087063304        6.5684909156       15.8413007750
  C         3.9901628289        8.0527945462       14.5208789148
  H         3.2843936700        8.4131621877       28.7358490846
  H         2.8583556071        8.1838988088       30.4364382060
  C         4.0854193153        9.9213897079       29.8975522918
  H        -4.0217904440        8.5563926670       26.2401826519
  H        -4.5536600757        8.9680026802       27.8710869990
  C        -5.1440600705       10.3186417586       26.2179456324
  N        -1.1951639493       16.1476729063       30.3804925547
  C        -1.8332433375       15.9487711676       32.5809373662
  C        -1.9260237071       13.8066450696       33.7602034130
  H        -1.6015527559       12.0873206800       32.6358827575
  H         8.2738289497       12.8407185607       18.1326429694
  H         6.6084028549       12.4126615422       18.4186535062
  H         7.3053231911       14.1317989998       18.4712013974
  S         4.3711318994        9.6899352580       14.0063953351
  C         4.0280503574        7.0999417488       13.3641006932
  H         4.0351859643       10.4126304905       28.8895753929
  H         3.7034896424       10.6492202571       30.6754716911
  C         5.4432285353        9.2744392545       30.1629500993
  H        -4.8679940875       10.3156602453       25.1966636197
  H        -5.1153201842       11.3488362716       26.5901004582
  C        -6.6548842970       10.0389700959       26.4410198525
  S        -1.2416900702       17.6479150448       30.9093259775
  N        -1.7202444708       17.3458746331       32.4463795620
  C        -2.0131933265       15.3020682099       33.8283640678
  H        -2.0891636270       13.2104437194       34.6223744859
  C         4.5100764507        9.0623470554       12.3976606170
  N         4.4931088424        7.7259503627       12.2666283488
  O         4.0483944216        5.8411376340       13.5148463824
  H         6.1084388657       10.1205841655       30.3218653627
  H         5.7852278215        8.8397903557       29.2493322244
  C         5.5884430899        8.4255166580       31.4341086912
  H        -6.8487123870        9.0098684423       26.7021909023
  H        -6.9111448086       10.5928689350       27.3652481861
  C        -7.4774360443       10.5919027241       25.3056938242
  C        -2.3525959031       16.0238692405       35.0261692888
  S         5.0653704315       10.1012988321       11.1184262022
  C         4.6951239498        7.0465628816       10.9843649010
  H         6.4126373929        8.7057353170       32.0745603936
  H         4.6953897466        8.4255969882       32.0753954121
  C         5.7189216507        6.9586785109       31.0388821916
  H        -7.1635740934       10.2399849189       24.3039125484
  H        -7.1982617440       11.6743648298       25.3840282776
  C        -9.0501874812       10.3720836806       25.3864627355
  H        -2.0015682349       17.0514327417       35.0166355836
  C        -2.8923396383       15.5364221123       36.1437635894
  H         5.3662663450        7.6621046994       10.3560307367
  H         5.2010156562        6.1182393370       11.2213325780
  C         3.2970977450        6.9366229481       10.3987933084
  H         6.7903516986        6.9070394343       30.7116425088
  H         5.1925378555        6.8056404272       30.0779197496
  C         5.3632473971        5.9238356411       32.1413441682
  H        -9.4773131979       10.8380067633       24.4485684498
  H        -9.2216969405        9.3454760483       25.3998371825
  C        -9.7286796432       11.0081913169       26.5858235106
  S        -3.5583135046       13.9972426190       36.5920693483
  C        -3.0047602510       16.6129385888       37.2301249682
  H         3.2700870810        7.1287025071        9.3314705031
  H         3.0255506648        5.8493305112       10.4270229999
  H         2.5448301968        7.4663505522       10.9972094898
  H         5.2169466046        4.9096529015       31.7013730129
  H         4.4394662409        6.2105046225       32.6482792623
  H         6.2171461431        5.8641516439       32.8358178034
  H       -10.7680858906       11.0437994522       26.6143750693
  H        -9.4901683532       12.0817367434       26.5284453804
  H        -9.2756340729       10.5775328679       27.5254685816
  C        -3.9477131020       14.7517165307       38.1919274519
  N        -3.5360795267       16.0023973454       38.3153366753
  O        -2.6214145957       17.7442617323       37.1387466912
  S        -4.5067945271       13.9343970545       39.5944911089
  C        -3.6853918646       16.8757438661       39.5522303358
  H        -3.9863136720       17.8902781888       39.2723554336
  H        -4.4727224735       16.5177388253       40.1892218203
  C        -2.3860620601       16.8172701012       40.3474920107
  H        -2.5484118497       17.4095894945       41.2950464325
  H        -2.1522212229       15.7617646331       40.5543744804
  H        -1.5588773671       17.2280221334       39.7725168367
