352
i=
  H         4.6828239401        2.2309570059       12.8366243550
  C         3.8359885405        2.8593473513       12.7666430113
  H         4.3407191848        3.8507830981       12.9209217727
  C         3.0680800773        2.8345666669       11.4060793811
  C         2.9357429033        2.6311776324       13.9301503098
  C         3.9838012121        3.0298796071       10.2158747557
  H         2.2617932627        3.6206446694       11.4610744960
  H         2.5623643443        1.8981282010       11.2660280598
  H         2.4807126960        1.6695630244       14.0619228992
  H         2.2918496325        3.4402439421       14.0036709230
  H         3.5664692648        2.7470589233       14.7770367832
  C         4.7401983676        1.6836246607        9.8975254171
  H         3.4949285027        3.3151642905        9.2454855761
  H         4.6838171655        3.7987076459       10.3106706333
  C         5.4430881327        1.7214213045        8.5337776858
  H         4.0702116223        0.8284334648        9.9617785046
  H         5.4016720986        1.4549476202       10.7360253955
  C         6.6385260205        2.6134459474        8.5974431292
  H         4.6745606027        2.0555936517        7.8176345198
  H         5.7542148080        0.7150121181        8.2183912336
  C         7.8499157228        1.8220992208        9.1517759606
  H         6.9624072508        3.0439472950        7.6404385345
  H         6.4113201126        3.3916755072        9.2516837575
  C         9.0697775758        2.6499239017        9.3599779754
  H         8.0925424495        0.9237199930        8.5369922182
  H         7.7492171820        1.4237636403       10.1165765281
  C         8.6992992116        3.9405483763       10.0745042171
  C         9.5242370853        3.3242060361        8.1324854840
  C        10.1918840943        1.9185609034       10.1725749796
  C         8.8817913731        5.0495884545        9.2194388581
  C         8.2258833116        4.2757370343       11.3468665610
  C         9.3450790013        4.6516039290        8.0103033362
  C         9.9887162890        2.7068285149        6.9919208385
  H         9.8428761188        1.4994447200       11.0918973105
  H        10.6361105924        1.1348954251        9.5518088641
  C        11.3920594499        2.8922927389       10.5794710662
  S         8.4036109415        6.5039255085        9.9837516984
  C         7.9810884698        5.6214650955       11.4328982903
  H         8.0748702922        3.5570190672       12.0317613018
  C         9.7418074249        5.2626114194        6.8466345934
  H        10.2322003422        1.7077091735        7.0778067923
  C        10.3976958330        3.3302614735        5.8439320335
  H        10.9866698747        3.8608076532       10.9618561210
  H        11.7760272417        3.1251014375        9.5594626343
  C        12.3986673245        2.2017341831       11.4788112233
  C         7.4298159545        6.3366502431       12.6879973958
  C        10.2933596226        4.6656313775        5.7103580212
  H         9.8134295768        6.3522016116        6.8653637162
  C        10.9142807306        2.9598263159        4.6262219996
  H        13.3838188670        2.5118355993       11.2589906935
  H        12.4459435396        1.1352922120       11.3394615595
  C        12.0080838035        2.6717248069       12.8437890226
  C         7.5634575555        7.7206643304       12.9719117595
  C         6.9684810523        5.5522129428       13.8951766723
  C        10.8082275970        5.3587587724        4.4746115698
  C        11.2023229421        4.0522196207        3.8448741412
  S        11.2915388838        1.4619057092        3.9482775252
  H        12.3964864637        3.6724437549       12.9804243311
  H        10.9197415751        2.6861198043       12.9881137069
  C        12.4655016575        1.7335670745       13.9678845950
  N         7.9140640242        8.6365867931       11.9698859666
  C         7.3141155510        8.3156252687       14.1430689760
  C         6.6610790006        6.1611841986       15.1423256298
  H         6.7296637479        4.4642679933       13.8583477917
  C        11.9642235694        6.4023888422        4.7063305706
  C         9.7542400586        5.9927540553        3.5325244983
  C        11.6552243754        3.5993814348        2.5657173086
  C        11.7453536796        2.2541072366        2.4950386583
  H        13.1391249795        0.9505818968       13.6415739283
  H        11.5691882717        1.1554588261       14.2805647433
  C        12.9395598262        2.4947910282       15.1901723902
  S         8.0986609875       10.0887052223       12.6005294326
  N         7.3919272001        9.6971460358       14.0745981722
  C         6.9308981481        7.6585967175       15.3314059208
  H         6.2594823089        5.4684120362       15.8306504676
  H        11.7357980940        7.2746392766        5.3194465165
  H        12.3478838316        6.7355218371        3.7743688007
  C        13.2000044948        5.7525414063        5.3639242285
  H         9.2879562178        6.7590466355        4.1821582421
  H        10.2029038776        6.6347163523        2.7627591484
  C         8.7693278621        5.0555479346        2.8469643298
  H        11.8401178766        4.3908981368        1.7688288776
  C        12.0869608502        1.5202433011        1.2548350029
  H        13.8955190226        2.8883662865       14.9712954119
  H        12.3094895346        3.3761295219       15.4753711606
  C        13.1762646426        1.5389610227       16.3690953395
  C         6.7238028801        8.4163214562       16.5203741491
  H        12.9604110257        5.1449419718        6.2211511013
  H        13.6491866399        5.0308541493        4.6917477561
  C        14.2977018382        6.7608554465        5.7965638657
  H         8.1871832450        4.4644174741        3.5255810747
  H         9.2142430096        4.2790870808        2.1709759407
  C         7.6734987097        5.8706012990        2.1068045409
  C        12.1326043870        0.1490812922        1.0574596675
  C        12.2002114402        2.2639905108       -0.0333947109
  H        14.2276697108        1.2446792693       16.2855561844
  H        12.5657530218        0.7167084717       16.2616580302
  C        12.9013491473        2.0663987156       17.7036805752
  H         6.8205622246        9.4659994388       16.4727915394
  C         6.4688637196        7.9821140669       17.7942105679
  H        13.8860412011        7.5117146845        6.3841628311
  H        14.7214640917        7.2952337710        4.9201408174
  C        15.5154480855        6.0649766986        6.5380574329
  H         7.4390694725        6.7159021877        2.7114634822
  H         8.0522357734        6.2710786391        1.1806237820
  C         6.3430549102        5.0221465511        1.7532704352
  N        11.9058254873       -0.7472979720        2.0976969628
  C        12.3469996660       -0.5164679314       -0.1444476584
  C        12.5703771451        1.7075078430       -1.2109531829
  H        12.1404436918        3.3164996189       -0.0516847272
  H        13.0375140223        1.3094671646       18.4339156044
  H        11.8293268959        2.3585040126       17.7264657702
  H        13.5783100624        2.8953706611       17.8894555182
  S         6.1058065399        6.4116380864       18.3696639039
  C         6.5430263948        9.0491263291       18.8326615709
  H        15.8771205554        6.7462021328        7.2996990956
  H        15.1143778386        5.1530812944        7.0867880034
  C        16.4863191604        5.6093129219        5.5266826503
  H         6.3036537366        4.0954506766        2.3759277744
  H         6.3977565892        4.8914229175        0.6690371590
  C         5.1089787202        5.9686609112        1.9698243193
  S        11.6673637371       -2.2092341692        1.5002494947
  N        12.1407813536       -1.9469613989       -0.0305341510
  C        12.6175460048        0.1724012359       -1.3661203662
  H        12.7263671705        2.3237885019       -2.0601055230
  C         6.0872482765        7.2143649686       20.0119268505
  N         6.2964439984        8.5132250184       20.0124758789
  O         6.5803597303       10.2386612630       18.5442849501
  H        16.2575534052        4.5177186704        5.2419825600
  H        16.5880190113        6.2079554515        4.6824894640
  C        17.8976656830        5.4656352023        6.1931653100
  H         4.2524359349        5.4453825879        2.4118888676
  H         5.2818017845        6.7894971644        2.6332440713
  C         4.6464174288        6.7463531290        0.7341880261
  C        12.7805794479       -0.5661054460       -2.6269144744
  S         5.3517625402        6.5344891259       21.4612966300
  C         6.3346636930        9.3429346032       21.2655211424
  H        17.7799927277        5.1306477357        7.1978652519
  H        18.4452010228        4.6073832530        5.8636334024
  C        18.8521214579        6.6704978437        6.0379909944
  H         4.2302228485        5.9650959602        0.0625306993
  H         5.4756954264        7.2811475377        0.2673796711
  C         3.6101075237        7.9169762640        1.0825148753
  H        12.6372006445       -1.6005394477       -2.4969808022
  C        13.2979896339       -0.1295302928       -3.8320946301
  H         5.5213958670        9.0751908953       21.9608226863
  H         6.1033695273       10.3795795205       21.0033475562
  C         7.7740273930        9.3675105006       21.8425163008
  H        18.4413069467        7.5646381231        6.4174040089
  H        19.1231875095        6.8902196245        5.0249953788
  C        20.1300305708        6.3565566197        6.7242539493
  H         2.7418084973        7.8863615640        0.3615442058
  H         3.1378332803        7.6519707237        2.1019018283
  C         4.2225435478        9.2569437979        1.4662124009
  S        14.0246869519        1.4116798806       -4.1678514151
  C        13.4118354093       -1.0702501439       -4.9695524281
  H         8.1329709844       10.1913203978       22.4776171354
  H         8.5312535167        9.3011920843       21.0816565255
  H         7.8444064524        8.6445068012       22.6039797563
  H        19.8692712358        6.4162559875        7.7565575581
  H        20.4270926840        5.4096097872        6.4810066935
  H        20.8462510807        7.0740934926        6.4654933726
  H         4.8063568283        9.6557447966        0.6286886737
  H         3.4865167639       10.0177023244        1.8587306993
  H         4.9302760490        9.1338946848        2.2753981791
  C        14.3102171140        0.7900675954       -5.7807270629
  N        14.0933437780       -0.5527942280       -5.9920552302
  O        13.0283679050       -2.2201257052       -4.8462617264
  S        15.1551036880        1.6522997886       -7.0098087678
  C        14.3329612651       -1.2364246138       -7.2243543184
  H        14.5841543180       -2.2450064437       -6.9417164637
  H        15.2145577642       -0.8883979142       -7.7059924515
  C        13.0881741095       -1.2063875694       -8.0891399291
  H        12.4389790215       -2.0783526441       -7.9256907178
  H        13.1898706435       -1.1700447036       -9.1989272806
  H        12.5550451368       -0.3015050970       -7.8458108452
  H        -3.8118066823       14.6406610144       16.4321972810
  C        -3.4921749689       13.5904522055       16.5842993133
  H        -4.2894226190       13.0115634711       16.8515447042
  C        -2.2873083394       13.6890416843       17.5245712878
  C        -3.0535579409       13.0383937707       15.2382078347
  C        -2.6528288809       13.4364176517       18.9270579615
  H        -1.5643541637       12.9894051600       17.1855731713
  H        -1.9186963311       14.7097557780       17.4688069552
  H        -3.0998595687       11.9251816752       15.3606698001
  H        -3.7118418219       13.3358789199       14.4369242537
  H        -2.1513000160       13.3157873936       14.7695799815
  C        -1.5479192451       13.1624135582       19.9292363926
  H        -3.3480642238       12.6496887612       18.8077064176
  H        -3.2199298380       14.3310640295       19.2784953343
  C        -2.0100509982       13.2189411568       21.3930255260
  H        -1.1914541915       12.1128767560       19.7397064140
  H        -0.7918968299       13.8413423398       19.7048259215
  C        -0.8755014210       12.6939695349       22.3146590057
  H        -2.9139983821       12.5885097461       21.3392459725
  H        -2.2183816303       14.2504489800       21.6099860462
  C         0.1800540327       13.7014941802       22.6677930752
  H        -1.4060224425       12.0877485584       23.0719250138
  H        -0.3005798396       11.9105515033       21.7318270943
  C         1.4124774820       13.0303704225       23.4133054706
  H         0.5996205095       14.0671713923       21.7255518596
  H        -0.2133227786       14.5584165794       23.2113872453
  C         1.8720927708       11.6948635582       22.7186847836
  C         0.9872387623       12.3044468739       24.6418788344
  C         2.5553973919       14.0272183927       23.6307630165
  C         1.5214795268       10.5886379428       23.4668000890
  C         2.4463229888       11.3549826572       21.5356388320
  C         1.1243893769       10.9719865208       24.7257638819
  C         0.3574228362       12.8798105711       25.7070972501
  H         2.6724889894       14.3702247325       22.6175906865
  H         2.4314610639       14.9305964387       24.1812873811
  C         3.8575660976       13.4211595255       24.2005353153
  S         1.8355179159        9.1327027274       22.7532232495
  C         2.3439426997       10.0132178817       21.3013584667
  H         2.8852563685       12.0776590041       20.8720417556
  C         0.6908641330       10.3075673648       25.8682104030
  H         0.1726668919       13.8784447928       25.6722012910
  C         0.0617950903       12.2395085641       26.9251693673
  H         4.1473757324       12.6589653902       23.4526231263
  H         3.5859391711       12.8927935105       25.0429083254
  C         4.9893381946       14.3736754296       24.4682791188
  C         2.7364060999        9.4267339059       19.9997797477
  C         0.1386990715       10.9046861062       27.0271047041
  H         0.7763074659        9.2213126720       25.9274942453
  C        -0.3858666217       12.6444996845       28.1520746722
  H         5.7297528657       13.6999652295       24.9583765310
  H         4.6830911657       15.0712093504       25.2348896857
  C         5.6810300627       15.1171921052       23.2681289443
  C         2.7271656724        8.0467474032       19.7664681065
  C         3.0667371950       10.3345121869       18.8579899085
  C        -0.2394928892       10.2146479948       28.2191433206
  C        -0.5951919765       11.4876508978       28.8935699753
  S        -0.7038210227       14.0805632987       28.9124415275
  H         6.2795874696       15.8628755845       23.7993495913
  H         4.8821896352       15.6359943898       22.7307805750
  C         6.6027782615       14.1989536704       22.5097140949
  N         2.4921360882        7.0843369948       20.6864119231
  C         3.0299573861        7.4958478713       18.5257777177
  C         3.3608225023        9.7503537851       17.6451174403
  H         3.1209817752       11.4189426290       18.8211233130
  C         0.9367828193        9.6061803428       28.9793702688
  C        -1.4510088202        9.3332941713       28.0723146348
  C        -1.0499385275       11.8495796731       30.1552081084
  C        -0.9829096907       13.1990345511       30.3656692922
  H         7.5471377003       14.6076507920       22.6258351105
  H         6.6322832477       13.2590926572       22.9846672822
  C         6.2725953942       14.1975258422       20.9717940219
  S         2.4123220753        5.6123335485       19.9434540338
  N         2.8990053785        6.0864438549       18.4930321867
  C         3.3679826954        8.2818496562       17.3589513696
  H         3.5547827987       10.4340948272       16.8337681961
  H         1.4407946815        8.9034973853       28.3323975374
  H         0.5847583527        9.0104110301       29.7904896307
  C         2.1498985890       10.4376323897       29.4485766256
  H        -1.3049231720        8.5999032269       27.2818196356
  H        -1.6250781753        8.7846357466       29.0000901014
  C        -2.7173002462       10.0913291630       27.6470115210
  H        -1.2586655196       11.0937739871       30.8873691434
  C        -1.3821226222       13.9399257164       31.6399787995
  H         6.0792671099       15.2493370125       20.6574725537
  H         5.2523594209       13.7948348282       20.8527926396
  C         7.2953195015       13.6384625628       19.9284085263
  C         3.5048921137        7.7035555276       16.0914507591
  H         2.5463574726       11.0399120610       28.6701503711
  H         1.8661327844       11.2223458335       30.2170441786
  C         3.2180118321        9.5605390281       30.0324516739
  H        -2.5268463749       10.4369923468       26.6339598913
  H        -2.9501383209       10.9639774678       28.2550677381
  C        -3.9452774157        9.1539548080       27.4825304007
  C        -1.4532804195       15.3233636159       31.8350098274
  C        -1.5450716699       13.1151451631       32.8810450152
  H         8.3647851416       13.8432569070       20.1644929103
  H         7.2021033823       12.5958192564       19.9983551878
  C         7.0519169442       14.0666596844       18.4682689617
  H         3.3783476637        6.5933889731       16.1174119797
  C         3.7688932828        8.1261186914       14.8288669724
  H         3.7934602150        9.0452811056       29.3259323902
  H         2.6835444036        8.7672943465       30.5854100377
  C         4.1665732149       10.3409464598       30.8959703838
  H        -3.7244134284        8.4499645745       26.7730690008
  H        -3.9857125910        8.6559962713       28.3895114160
  C        -5.3110472928        9.8123608037       27.2180849416
  N        -1.2489143657       16.2990676906       30.8046515266
  C        -1.7614894112       15.9309280874       33.0444376732
  C        -1.8233623997       13.7193259518       34.1199308257
  H        -1.5816301840       12.0656782474       32.7076949296
  H         6.1234606445       14.5911637047       18.4413891826
  H         7.9057296543       14.6853781078       18.2085451517
  H         7.0984862685       13.2658959646       17.7428938838
  S         3.9910927914        9.6976936622       14.2875909517
  C         3.7678037524        7.1102600724       13.7826517856
  H         4.2209004457       11.4448804325       30.6525679048
  H         3.8411794034       10.3248871225       31.9522450539
  C         5.6010808734        9.7410460395       30.8910343928
  H        -5.5239980545       10.7737430747       27.7334085888
  H        -6.1396590770        9.1842996759       27.5709962041
  C        -5.5379379127       10.1873989689       25.7752294715
  S        -1.4063395374       17.7602047073       31.4335447400
  N        -1.8361313677       17.3360363593       32.9483864385
  C        -2.0624018238       15.1981399952       34.2260279632
  H        -2.0211511863       13.0985256797       34.9347677814
  C         4.2042978655        9.0459179828       12.6796143967
  N         4.0977342136        7.7310867097       12.5652292638
  O         3.4303468245        5.9386343445       13.9295902034
  H         6.3328470700       10.3741373246       31.3972541949
  H         6.0292401784        9.7836022462       29.8706602525
  C         5.6812668090        8.3326446461       31.4515506792
  H        -4.8812482419       11.0002633272       25.4775003762
  H        -5.4502518266        9.3062090090       25.1222058673
  C        -6.9614530354       10.7948374255       25.5977782370
  C        -2.4085144135       15.9743467180       35.4105894236
  S         4.6476555822       10.0020154462       11.2370134582
  C         4.1612040493        6.9169105481       11.3651732851
  H         5.9855013696        8.5417436231       32.4714401817
  H         4.7823239374        7.7503294083       31.4180712317
  C         6.6998125172        7.4656840684       30.7162368988
  H        -6.9589433779       11.3387579195       24.6330411911
  H        -7.1988572292       11.4359368820       26.4379729733
  C        -7.9344669825        9.6356923441       25.4517968364
  H        -2.4767740259       16.9898566006       35.2185638602
  C        -2.7000357514       15.6434914553       36.6977995855
  H         4.6703840086        7.4716844541       10.6231922920
  H         4.6550594199        5.9196194105       11.4998510857
  C         2.8127361641        6.5770102752       10.9166912799
  H         7.5433902853        8.0150394353       30.3544799143
  H         6.2723990736        7.0567196147       29.7644333673
  C         7.1709751684        6.2201954184       31.4673767071
  H        -7.7321580222        9.1994599747       24.4775279126
  H        -7.8471527523        8.9274070080       26.2491537660
  C        -9.3565832947       10.0335361139       25.5190068313
  S        -3.0856721011       14.0702919832       37.1828655519
  C        -2.9843134731       16.7028544530       37.6369071384
  H         2.3926179369        7.3003336263       10.2995040414
  H         3.0174426214        5.7394556223       10.2625081884
  H         2.0998649871        6.2351673596       11.6759068041
  H         8.0078886033        6.4099097713       32.1175645251
  H         7.4175682697        5.5034393227       30.6983408989
  H         6.3497210721        5.9862663598       32.0679584708
  H        -9.6223261469       10.4748748090       24.5695268467
  H        -9.6081865247       10.7031573077       26.3446460608
  H       -10.0772664298        9.2670932566       25.6041610754
  C        -3.7258502734       14.8624708497       38.6214696193
  N        -3.6292527445       16.1947005367       38.6807417661
  O        -2.7469723749       17.8564856310       37.4336400742
  S        -4.5292186259       13.9869126329       39.9300369649
  C        -3.9962823059       17.0288194125       39.8121418194
  H        -4.3230643563       17.9971051995       39.5257701021
  H        -4.8938727285       16.6830282223       40.4058336137
  C        -2.7343805835       16.9722558085       40.6643518623
  H        -2.0541228037       16.1552814435       40.3859023716
  H        -2.1476866774       17.9661855266       40.7289467237
  H        -2.9544069261       16.8134999781       41.7291707868
