352
i=
  H         1.8105912381        1.5979474987       12.2376618911
  C         2.7410454190        2.1114610090       12.3515466853
  H         3.5025566816        1.3343877816       12.2103120869
  C         2.9508782971        3.2577430599       11.3261079966
  C         2.8298716391        2.7167909158       13.7657995459
  C         4.2381950526        3.2014389116       10.4911898441
  H         2.8004516908        4.3156971436       11.6647505131
  H         2.0938849680        3.0650948811       10.6567206492
  H         2.5758451043        1.9179312939       14.4228291663
  H         2.1444936953        3.5622861867       13.8668842751
  H         3.8149481953        3.0977154335       14.0174124876
  C         4.3443605033        2.0150901567        9.5718971461
  H         4.1686537869        4.0574503672        9.9127279706
  H         5.1154920269        3.3294773988       11.1427312170
  C         5.1358290490        2.2764869871        8.2799951988
  H         3.3531786133        1.6915351993        9.3239865361
  H         4.9046104067        1.2014773047        9.9919707137
  C         6.5189802293        2.8537521668        8.5540937720
  H         4.6584108178        3.0694971096        7.6056461100
  H         5.1041833257        1.3788780808        7.6920465451
  C         7.7031497877        2.0584214149        9.2267995039
  H         6.8923990545        3.1172452398        7.5474409502
  H         6.4486110237        3.7676909224        9.1315499512
  C         9.0317875798        2.8267366323        9.2817244503
  H         7.8362242194        1.0948682961        8.8044771323
  H         7.3930151883        1.7236325312       10.2280858747
  C         8.8431149339        4.2222509461        9.9953356305
  C         9.4933421356        3.5038843592        8.0183508843
  C        10.1915853515        2.0675697296        9.9639468448
  C         9.1181617494        5.2955602237        9.1919121913
  C         8.2850210477        4.6561129981       11.2394278743
  C         9.6032937316        4.8815244221        7.9810661073
  C         9.8654048902        2.8804808348        6.8601199013
  H         9.8201154049        1.5502204413       10.8506568442
  H        10.5087159643        1.2545254646        9.2822765318
  C        11.4537721203        2.8285873889       10.1451454263
  S         8.6992576718        6.7564226270        9.9186177410
  C         8.1857650916        6.0302290467       11.3474561244
  H         8.0332617978        3.8844098841       11.9750074426
  C         9.8518104342        5.4749988940        6.8117494581
  H         9.8470324545        1.8117870890        6.9191245264
  C        10.3184685509        3.4799540150        5.7503179737
  H        11.2483225538        3.7264539395       10.7357568296
  H        11.7150164341        3.3025921825        9.2230448179
  C        12.4676824125        2.0829903997       10.9561185505
  C         7.7897980652        6.7063648412       12.6129779692
  C        10.2857412730        4.8398432641        5.6504482791
  H         9.7150922459        6.5350988175        6.8133994186
  C        10.8060933316        3.1379959908        4.5157107927
  H        13.4436692267        2.4595939937       10.8197158618
  H        12.5069692240        1.0304183305       10.6874933623
  C        12.1576699990        2.1470400618       12.3950110833
  C         7.7524388569        8.1007406296       12.8977374232
  C         7.2810525886        5.8692535717       13.7064305207
  C        10.7400522929        5.5915819979        4.4166907141
  C        10.9962514829        4.2214616460        3.6905611158
  S        11.1809915119        1.6572864577        3.7008487187
  H        11.6890596965        3.0931259886       12.6191494728
  H        11.4621511139        1.3457922694       12.6739917517
  C        13.3945909506        1.9908864966       13.2779327318
  N         8.0030379217        9.1545149296       11.9323670598
  C         7.5997472630        8.6857065961       14.1530962014
  C         7.0428959898        6.4706943218       14.9230212436
  H         7.0499309094        4.7903601170       13.6363779820
  C        12.0701678916        6.3235056957        4.6506471070
  C         9.6782912864        6.5419207183        3.8249100882
  C        11.3371191388        3.8505902899        2.4094567301
  C        11.4348986702        2.5054433926        2.2616603786
  H        13.8546461357        2.9419766024       13.4126818762
  H        14.2453405816        1.5592032921       12.7204255855
  C        13.1616639652        1.2557806483       14.5308608534
  S         7.9726140455       10.5779139168       12.6799351380
  N         7.6819841759       10.0586896271       14.1880708564
  C         7.2739818329        7.9066255666       15.2792803692
  H         6.7392076507        5.8078933384       15.7170260624
  H        12.0136493145        7.0975329101        5.4830981469
  H        12.2732578175        6.8977887246        3.7704220825
  C        13.3334907799        5.4545089094        4.9860681138
  H         9.5349545948        7.3299283060        4.5466209664
  H        10.0212658611        6.9501616681        2.8949950718
  C         8.4352104403        5.6910856531        3.5156479732
  H        11.3866480546        4.5741879630        1.6270189008
  C        11.6696044477        1.7504670011        0.9755716555
  H        12.6311964011        0.3107323841       14.3007062413
  H        14.1975236879        0.9062263475       14.8260663190
  C        12.4158340138        1.9801011806       15.5921289131
  C         7.0597351265        8.5440511738       16.5311167673
  H        13.2096342511        5.0208072833        5.9892495049
  H        13.4275377608        4.7698913439        4.1189019354
  C        14.5489331623        6.3164170650        5.1338633404
  H         8.1695491195        5.1871454372        4.4455796944
  H         8.5722071824        4.8878781151        2.7317585036
  C         7.3386297550        6.6062575527        3.0248238183
  C        11.7774398043        0.3306457934        0.6935135904
  C        11.9815042920        2.5642504787       -0.2368563835
  H        11.3721236611        1.6479903933       15.8016818198
  H        12.2621264422        2.8983368466       15.0817407005
  C        13.1925819092        2.1264020339       16.9482653580
  H         7.1975397680        9.5875178131       16.5647467950
  C         6.7370491922        8.0653197848       17.7860342434
  H        14.2523595532        7.1019512164        5.8156577579
  H        14.9329829603        6.7731120620        4.2389035848
  C        15.7475931584        5.4345841686        5.5468961384
  H         7.0502734895        7.3265588975        3.8475685399
  H         7.6778728906        7.3419978310        2.2592894037
  C         6.0116412358        5.9686402856        2.6108024319
  N        11.6803652988       -0.6399930958        1.7044464919
  C        11.8760129883       -0.2367612376       -0.5440353369
  C        12.2345177596        1.9195977668       -1.4871386141
  H        12.2238078925        3.5895208358       -0.0242039976
  H        14.1918830053        2.0617331660       16.6841029372
  H        12.8342681457        1.3437903972       17.7036672910
  H        13.0408765183        3.1633649589       17.4007610607
  S         6.5786209937        6.3713396844       18.2341278484
  C         6.5687671122        8.9569933981       18.9211704758
  H        15.4085407537        4.6290700722        6.2421816144
  H        16.2567583643        4.9927304756        4.7360463471
  C        16.8331369075        6.2465697783        6.2119845553
  H         5.4437435775        5.9971477098        3.5317914041
  H         6.1701898739        4.9514633504        2.4233930396
  C         5.2164481442        6.6100655673        1.4778273940
  S        11.5806761015       -2.1783196317        1.0385893375
  N        11.8013053580       -1.6137137346       -0.5298419377
  C        12.1607707731        0.4353270745       -1.7361021910
  H        12.4547954002        2.6198416569       -2.2998248845
  C         6.1279688002        6.9490819988       19.8185418106
  N         6.2881495800        8.2502362666       20.0570881436
  O         6.9311830952       10.0957844365       18.8430342792
  H        17.4442863545        6.6325818990        5.4443618424
  H        16.3717397140        7.0798002595        6.7222443374
  C        17.6084988151        5.3475454933        7.2167719218
  H         5.6620943037        6.5126458342        0.4890160442
  H         4.3519736729        5.9522508186        1.3600997615
  C         4.7438508193        8.0280143888        1.8931267960
  C        12.4952036827       -0.2682014816       -2.9718129260
  S         5.6179525650        5.9660665483       21.1700455215
  C         6.2040822176        8.9917197574       21.3590199968
  H        17.1569347094        5.4005834153        8.1591218823
  H        17.5175208537        4.3436089954        6.9546829181
  C        19.1037466042        5.7050242821        7.1732850896
  H         5.5579431327        8.6881264830        1.7099714357
  H         4.5914651160        8.1309258359        2.9641902639
  C         3.5029418202        8.4188097709        1.1966583171
  H        12.2671409443       -1.3600689854       -2.9196315089
  C        12.9433802704        0.0968038220       -4.2077650296
  H         5.4811252525        8.5836161884       22.0713222554
  H         5.8727110871        9.9353200507       21.1676316353
  C         7.5088898951        8.9768901517       22.1253085516
  H        19.6762900257        5.2033292476        7.9500326483
  H        19.1122630937        6.7256330504        7.3950556234
  C        19.7436688416        5.3369738589        5.8437445199
  H         3.5401459988        8.2350476864        0.0797090588
  H         2.7148353013        7.7784020983        1.5082878218
  C         3.2743746242        9.9466847677        1.4634238150
  S        13.4249981806        1.6595771012       -4.6848148762
  C        13.0236920200       -1.0070557572       -5.1682872318
  H         7.6305565562        9.8785490308       22.7346005582
  H         8.3097723054        8.9550518738       21.3764190058
  H         7.5962798684        8.1866206183       22.8790718603
  H        19.8124553328        4.2375991400        5.8108739980
  H        19.3152849362        5.6918567711        4.9133204887
  H        20.7819016385        5.5862298098        5.8781585093
  H         3.2415751254       10.5071573940        0.5736630814
  H         2.2956754132       10.0450862587        1.9417605045
  H         4.1232560705       10.3615903385        1.9682404927
  C        13.9010681604        0.7808105740       -6.2124436443
  N        13.6628687297       -0.5705317565       -6.2079981133
  O        12.7501130461       -2.1425688995       -4.9756873593
  S        14.6061457551        1.6505716596       -7.5392093340
  C        14.0664278929       -1.4108913547       -7.3458811303
  H        14.2969377222       -2.4237233265       -7.0639252619
  H        15.0130229457       -1.1051791325       -7.6635881106
  C        13.0719563612       -1.3469433197       -8.5291856784
  H        12.2594432643       -0.6927543265       -8.4742809433
  H        12.6226220173       -2.3389421411       -8.7856784230
  H        13.5087872793       -1.1137681153       -9.4446291490
  H        -3.2336590206       15.1255456881       16.4817527361
  C        -2.7776902429       14.0870023840       16.4266912047
  H        -3.7247036700       13.5029538627       16.4087922028
  C        -1.8806632600       13.6960383621       17.6322981345
  C        -1.9956530607       13.6928888158       15.1960712600
  C        -2.6667178143       13.4758019359       18.9767599164
  H        -1.2773229279       12.9244726300       17.3644057725
  H        -1.3159303202       14.6047737764       17.8225287588
  H        -1.0093638470       14.0133754790       15.2057540370
  H        -1.9988450511       12.6396039914       15.1463998620
  H        -2.3608840234       14.0508174046       14.2170197466
  C        -1.7386463868       13.0629192595       20.1215257208
  H        -3.5157592741       12.8383674536       18.7651367207
  H        -2.9864159869       14.4119740147       19.3557749152
  C        -2.0716308088       13.6109713293       21.5163479382
  H        -1.8006171514       11.9832662456       20.1208947201
  H        -0.6496308347       13.2767551997       19.9302172912
  C        -1.0671484162       13.0144866697       22.4280441945
  H        -2.9914572594       13.1527200961       21.8925590993
  H        -1.9819349025       14.6971469732       21.5016253637
  C         0.1013864193       13.9733192161       22.7603794901
  H        -1.5247751109       12.7509168646       23.3886090328
  H        -0.6667975168       12.0952347575       22.0993928401
  C         1.3186710957       13.2893393139       23.5360371025
  H         0.5214222857       14.3854565142       21.8747087109
  H        -0.2661053638       14.8466935888       23.3011741800
  C         1.6933853375       11.9422884870       22.8834233309
  C         0.9925973560       12.5613741618       24.7911652321
  C         2.5420915418       14.2268417537       23.7561278886
  C         1.5355114350       10.8006842933       23.6774123904
  C         2.1709853237       11.5622517367       21.6078223360
  C         1.0179060929       11.2076000163       24.9091334963
  C         0.4970665234       13.1914949260       25.9680706368
  H         2.9653434631       14.5960501459       22.7823056294
  H         2.3002518842       15.0532981237       24.3959877310
  C         3.6982981548       13.4295889035       24.3185665485
  S         1.7682065035        9.2959473434       22.8571125791
  C         2.3490004646       10.2160062465       21.4875614907
  H         2.2054097766       12.2938781953       20.8295527710
  C         0.6031774583       10.5818126079       26.0537225257
  H         0.5647751247       14.2270296200       25.8575740115
  C         0.1812693655       12.5952697143       27.1132895060
  H         4.0207549856       12.6257940023       23.6576678692
  H         3.3918482729       12.9021512544       25.1843809203
  C         4.8942843452       14.4432043190       24.5341658723
  C         2.7625147611        9.6156033130       20.1566181639
  C         0.2057778373       11.2596602891       27.2185874397
  H         0.6022672108        9.4809811019       26.1900512705
  C        -0.1858342964       12.9706358447       28.3607562644
  H         5.5117115930       14.0443275349       25.2640117323
  H         4.5588006386       15.3427318073       25.0562191434
  C         5.7388484309       14.8176018233       23.2549995202
  C         2.7650120634        8.1990485783       19.8696827959
  C         3.1168583518       10.4946078629       19.0021040026
  C        -0.2532104307       10.5558779597       28.4923487935
  C        -0.3837146707       11.8894296414       29.1915582624
  S        -0.6339005344       14.5047522527       28.9425616237
  H         6.5097568883       15.5813575701       23.3847625263
  H         5.1455918626       15.2527681273       22.4582010477
  C         6.3991069075       13.6261392821       22.6550145602
  N         2.3474132030        7.1912676346       20.7969074754
  C         3.0427027019        7.6885361839       18.6297446501
  C         3.4535921074        9.9218133403       17.7561870915
  H         3.3334237020       11.5393347282       19.0774411239
  C         0.8080424842        9.6838559364       29.2318607170
  C        -1.5534887896        9.7608110159       28.3192745560
  C        -0.8919153883       12.3721186887       30.4382023707
  C        -0.9579687741       13.7309764630       30.4584569959
  H         7.4812977161       13.8923485035       22.4865125964
  H         6.3640330468       12.7217013763       23.2119458436
  C         5.8470571745       13.2486954676       21.2686031900
  S         2.3680445653        5.7309447778       19.9755470638
  N         2.8448620425        6.2977856803       18.5722271722
  C         3.3901699049        8.4484903597       17.4887666386
  H         3.6778278455       10.5809865320       16.9699475622
  H         0.9830487804        8.8955090077       28.4733133125
  H         0.2714544181        9.1783104207       30.0375736199
  C         1.9987785484       10.3988350607       29.8444601026
  H        -1.4713003834        9.0681185741       27.5537306637
  H        -1.8784505750        9.2670687731       29.2284389978
  C        -2.6598688526       10.7303566489       27.8785327609
  H        -1.0928166724       11.6791642479       31.2502555619
  C        -1.2653743896       14.4770265722       31.7763731944
  H         4.8640319289       13.6624033794       20.9652693721
  H         5.5606868745       12.1966822317       21.4446218797
  C         6.8487049966       13.5885905117       20.1458169513
  C         3.5734320205        7.8130461140       16.2435468072
  H         2.3801938812       11.1623099421       29.1369538297
  H         1.7482541680       10.8935269948       30.7519159378
  C         3.1085743647        9.3639562339       30.2041261057
  H        -2.2808049263       11.5272336764       27.2391420571
  H        -3.0832362870       11.3189311169       28.7380270937
  C        -3.8091056814        9.8894161396       27.1837673991
  C        -1.3810514695       15.8690771677       31.8730220606
  C        -1.4307361121       13.7291447091       33.0754378399
  H         7.2277747953       14.6156770073       20.0636462966
  H         7.7293143841       12.8289987156       20.2706931079
  C         6.2175565180       13.3442276327       18.7685583652
  H         3.5887864053        6.7700696139       16.3521473480
  C         3.8453447391        8.2693798584       14.9904629966
  H         3.1174147762        8.4506642423       29.5620634288
  H         2.9234201067        8.9028369703       31.1397198481
  C         4.4404704753       10.1112096416       30.2900800700
  H        -3.4450970028        9.1571069067       26.5348885573
  H        -4.2248362214        9.2779649025       27.9586812222
  C        -4.8960974778       10.7926000508       26.7445106122
  N        -1.0923358520       16.7154340786       30.8186467391
  C        -1.7479343837       16.5451355432       33.0447248642
  C        -1.8054762724       14.4056151100       34.2448055423
  H        -1.2723445606       12.6548920920       33.0795028432
  H         6.8145510981       12.7176375174       18.1453583691
  H         5.2867443874       12.7864691763       18.8937921845
  H         5.9443540284       14.2566884085       18.2125836683
  S         4.1595987562        9.8844896592       14.5255099072
  C         4.0171181097        7.3262775643       13.8653571227
  H         4.3226191468       10.9713480258       29.6334858322
  H         4.6332999984       10.6284749836       31.2293549079
  C         5.5227167799        9.1425826322       29.8560069013
  H        -4.4979696202       11.6457126637       26.1707684606
  H        -5.4309298788       11.2122146578       27.5930875574
  C        -6.0102670163       10.0263395294       26.0509326441
  S        -1.1624811342       18.2705011048       31.3814629361
  N        -1.6542092812       17.9427172210       32.8938606882
  C        -2.0042177821       15.8784922706       34.2368444769
  H        -1.9213955276       13.8598349077       35.1367316030
  C         4.3093785320        9.3590673690       12.8298443264
  N         4.2837350377        8.0321381194       12.7367287580
  O         3.8317286244        6.1206119738       13.9582634144
  H         6.3283782743        9.7164603573       29.3065643380
  H         5.1029449768        8.6667616363       28.9627933626
  C         5.9690379967        8.0549244644       30.8635246053
  H        -5.4187754696        9.4060751548       25.3674246579
  H        -6.6754848433        9.3005323342       26.6245364110
  C        -6.9732565909       10.8986425380       25.2440269522
  C        -2.3550920145       16.6733465336       35.4133947359
  S         5.0628431805       10.4043649574       11.4752868140
  C         4.4031479094        7.3256625123       11.5071334140
  H         6.4860921291        8.5270802423       31.6758929180
  H         5.1314483913        7.6691220169       31.4901934460
  C         6.6664226856        6.8507776802       30.2731500171
  H        -6.4430036239       11.3497233761       24.3659392103
  H        -7.1467425405       11.8081531471       25.8363992575
  C        -8.2781471196       10.2002517057       24.8216178652
  H        -2.2246503485       17.7720595330       35.3057956339
  C        -2.8765931567       16.3451147811       36.6482902851
  H         5.1245270744        7.8523484058       10.9015661678
  H         4.8115338357        6.3300939472       11.6383863753
  C         3.0535195049        7.1506337782       10.7695468997
  H         7.4901904297        7.1786950212       29.6663284652
  H         5.9638873209        6.2373160450       29.7062921409
  C         7.2632036340        6.0134722061       31.3882095933
  H        -8.5815589986       10.5299594699       23.8078124127
  H        -7.9626396602        9.1014980807       24.7275748874
  C        -9.3354412156       10.4755743989       25.8171127432
  S        -3.3404363908       14.7703781149       37.1428877656
  C        -3.0267356593       17.3747586280       37.6468807606
  H         2.7504576606        8.0112156998       10.1819652181
  H         3.1460834732        6.3808286801        9.9941531619
  H         2.3575242860        6.7988602643       11.5238971704
  H         8.0952173030        6.5496194997       31.8428727298
  H         7.8562502308        5.1676477060       30.9176872120
  H         6.5118518525        5.7136865133       32.0897180060
  H        -8.8123525464       10.9206176793       26.6925456151
  H        -9.8614590964        9.5381437900       26.1008328972
  H       -10.0460091920       11.2091807179       25.5080635730
  C        -3.8729588740       15.5652070008       38.6008953973
  N        -3.6862726275       16.9359689521       38.6662900847
  O        -2.6692287092       18.5842777641       37.5259803671
  S        -4.6420605870       14.7828933217       39.9578929567
  C        -3.9000393283       17.7065985076       39.9156988766
  H        -3.9341655125       18.7813183941       39.6336662591
  H        -4.8408106313       17.4791060092       40.3813018526
  C        -2.7947524384       17.3911098492       40.9129767694
  H        -2.8809650079       16.3885657091       41.2565671713
  H        -1.8556688027       17.5746254018       40.5088942810
  H        -2.6711527197       18.0582438596       41.7190646635
