352
i=
  H         4.5546043597        1.5442027334       13.4612387138
  C         4.0017166973        2.4725209891       13.4140777011
  H         4.6005529181        3.3952309454       13.2072472772
  C         3.1053947347        2.4005843670       12.1422540319
  C         3.0943212201        2.6575742226       14.6460963991
  C         3.8013566752        2.8611074047       10.8467759528
  H         2.0908410851        2.8521288718       12.2739444566
  H         3.0132921630        1.3631124507       11.8966049780
  H         3.6825451846        2.7133521069       15.4985082800
  H         2.4705338159        1.8069259618       14.6922376531
  H         2.3710755833        3.5194555667       14.5421754652
  C         4.4810721414        1.6316826227       10.2197775906
  H         2.9885892584        3.1107405606       10.2253079978
  H         4.5333732253        3.7092790288       10.8978713834
  C         5.1483013650        2.0337611753        8.8974445987
  H         3.7848313326        0.7881178597        9.9982393646
  H         5.2436605048        1.2521220974       10.9506812419
  C         6.4696415253        2.8208934615        8.8581855814
  H         4.4795028139        2.6630566678        8.2513669417
  H         5.2861592884        1.0974488226        8.3203120163
  C         7.7676684807        2.0848280649        9.0416708179
  H         6.4084974117        3.2437448977        7.9030277085
  H         6.2577033479        3.6432272650        9.5583096272
  C         9.1110783061        2.8739923138        9.1881920530
  H         7.9285552841        1.3390019448        8.1988077437
  H         7.5922164736        1.4209758682        9.8667274685
  C         8.7485078255        4.2337826954        9.8882683388
  C         9.4747139368        3.5917347316        7.9575882956
  C        10.3118931734        2.1503685081        9.8767920468
  C         8.8986667108        5.3236630793        9.0514744185
  C         8.2919043351        4.6203586590       11.1379225105
  C         9.4345342556        4.9367277866        7.8534420859
  C         9.9859615513        2.9215833314        6.8134371501
  H         9.9628554354        1.8310035380       10.8506406875
  H        10.6611354784        1.2219640879        9.4031068083
  C        11.5511551135        2.9578261878       10.1700886855
  S         8.4816116484        6.8223528878        9.7926108562
  C         8.0154065834        5.9709698366       11.1952475907
  H         8.3237889130        3.8057590214       11.8011263670
  C         9.7714448170        5.5933183716        6.6599354180
  H        10.0705317858        1.8875147162        6.8278436225
  C        10.3272349291        3.5505643234        5.6450929144
  H        11.3501583544        3.9359840327       10.5170481118
  H        12.1184244473        2.9577665043        9.2029407151
  C        12.4245791454        2.2998721844       11.2038974595
  C         7.5715381341        6.5716783643       12.4831293499
  C        10.2838542869        4.9099249048        5.5209461653
  H         9.6573710583        6.6933658041        6.6898976162
  C        10.6264318791        3.1561586147        4.3474288232
  H        13.5379486734        2.3975014979       11.0456087355
  H        12.1938213266        1.3125530455       11.0645047773
  C        12.0891188443        2.6919791541       12.5848924070
  C         7.6520344710        7.9528829662       12.8167247511
  C         7.0631558310        5.7251517610       13.6276774636
  C        10.6495072922        5.5576906624        4.2649867980
  C        10.8867366974        4.2490730767        3.5883180266
  S        10.7645551945        1.5808953844        3.5333504356
  H        12.6030927934        3.5448380787       12.8526922859
  H        11.0316192813        2.8292854718       12.7397423098
  C        12.6046676232        1.6701618450       13.5105979470
  N         8.0396915522        8.8896456308       11.8966640729
  C         7.3428885254        8.4830771688       14.0481089590
  C         6.8849278583        6.2249997916       14.9293369788
  H         7.1311660963        4.6377778987       13.4512217732
  C        11.9560708559        6.3249119847        4.4722756737
  C         9.4811006526        6.4077207195        3.6189966655
  C        11.3959255746        3.8323752614        2.3332465140
  C        11.3795354837        2.4465892801        2.1547440491
  H        13.4514110110        1.1534285472       13.0105013180
  H        11.8393110944        0.9382181863       13.6269187419
  C        12.9637118683        2.3361149238       14.8532066271
  S         7.7599804737       10.3702026041       12.5264819704
  N         7.4339675350        9.8295883130       14.0450508073
  C         7.0445521277        7.7267142183       15.1910288037
  H         6.6327192114        5.5032016809       15.7011651426
  H        11.8687567110        7.2999239631        4.9970882905
  H        12.2816638014        6.6777236799        3.5066178225
  C        13.0773329469        5.5575649554        5.1961339306
  H         8.9881856574        6.8637874667        4.4618012463
  H         9.8621600741        7.2317346321        3.0384485875
  C         8.4639547000        5.5106818318        2.8251429661
  H        11.7741542702        4.5856894878        1.7244943327
  C        11.7057975225        1.6816091403        0.9441264430
  H        14.0050986548        2.6433346838       14.7892091318
  H        12.3500715026        3.2409595815       15.0266009083
  C        12.6578456093        1.4349953412       16.0477505695
  C         6.8039100678        8.3160445522       16.4710556710
  H        12.8257851142        5.1011498591        6.1336764640
  H        13.3275770157        4.7729813033        4.4766665266
  C        14.4316215262        6.3433655676        5.3897403671
  H         8.0354393405        4.7154255156        3.4435153629
  H         8.9352987709        5.1142333073        1.9868420929
  C         7.2275075090        6.3104669425        2.3927689523
  C        11.6453502950        0.2996826326        0.7381857929
  C        11.8771570815        2.4624885673       -0.3817324587
  H        13.3018250689        0.5348903238       15.9495728303
  H        11.6073629494        1.1092125774       15.8909480067
  C        12.7591952986        2.0985588319       17.4789729519
  H         6.9966854420        9.3520799747       16.5463146514
  C         6.3920312125        7.8242148044       17.7122439699
  H        14.4673646713        7.2025227341        6.1421941667
  H        14.6956186784        6.7858924954        4.4275604037
  C        15.5135293578        5.3334680570        5.7059228281
  H         6.8742706189        6.8305201336        3.2939816742
  H         7.5900857861        7.1134464283        1.7689858159
  C         6.1320573990        5.4238209533        1.8094241091
  N        11.5533580330       -0.6486947525        1.8272967997
  C        11.8828102664       -0.3445582479       -0.4758432950
  C        12.0173312581        1.8168720748       -1.6150869999
  H        12.0912551584        3.5178481088       -0.3141861016
  H        11.9098639661        2.7111784788       17.7703061436
  H        13.6151827304        2.7719792242       17.4308184140
  H        12.9154595567        1.3209002669       18.1564447899
  S         5.9435109163        6.2750806265       18.1599658521
  C         6.5072018748        8.7966225308       18.8272978631
  H        15.1252884538        4.7383195734        6.5369316846
  H        15.5780484177        4.6626232462        4.8654613157
  C        16.8704228932        5.9278579213        5.9180971808
  H         5.6491558341        4.9739363480        2.6678383208
  H         6.5877815939        4.6961057534        1.1335123889
  C         5.0885105458        6.1482707398        0.9571183806
  S        11.5294506568       -2.1687252991        1.1304812301
  N        11.7455444463       -1.7263897853       -0.4120935357
  C        12.1072770251        0.3239843060       -1.6995098089
  H        12.2649929722        2.3412473801       -2.5661767873
  C         5.9341910758        6.8101690323       19.7963004692
  N         6.1542180084        8.1173289526       19.9684151174
  O         6.7130723761        9.9524281720       18.7210632084
  H        17.2880259650        5.9983040536        4.9144282247
  H        16.7769519066        7.0133341360        6.1512728400
  C        17.8293973554        5.2495467666        6.7940886149
  H         5.4752424435        6.2209967499       -0.0271471351
  H         4.1363045237        5.5614628949        0.9302038928
  C         4.8241001348        7.6227920223        1.4360736084
  C        12.2728970529       -0.4447612037       -2.8411340120
  S         5.4427580992        5.7930578594       21.1443826124
  C         6.0768014766        8.7883188961       21.2473283134
  H        17.2386921189        4.9395984508        7.7143364068
  H        18.2611713067        4.4358024016        6.2202624708
  C        18.9740736112        6.0469402576        7.3207738172
  H         5.7491559878        8.2209399269        1.3035513799
  H         4.6973403344        7.4876434775        2.5098031429
  C         3.5393011994        8.2780961130        0.8846730690
  H        11.9227384897       -1.4269517803       -2.8051955830
  C        12.8847994339       -0.1365388802       -4.0219317479
  H         5.7753850954        8.0811100952       21.9616964700
  H         5.3155308856        9.5061444211       21.1559597691
  C         7.4348090680        9.3444225996       21.7952353268
  H        19.3266362464        5.5321627946        8.2099414163
  H        18.6907346909        6.9899196855        7.6738972705
  C        20.1371363205        6.1218354483        6.3617228682
  H         3.6861019369        8.3657261709       -0.1861106189
  H         2.5835425781        7.7154103161        1.0890232878
  C         3.3643364983        9.7253463974        1.3597902962
  S        13.5172983906        1.3594148764       -4.5050008100
  C        13.0129910113       -1.2402649423       -5.0034013640
  H         8.1223727222        9.4998875183       21.0266573421
  H         7.9537012261        8.5792790602       22.4256142103
  H         7.2875694249       10.2243994012       22.4269321303
  H        20.9591017506        6.6135273330        6.8568310169
  H        20.4126198783        5.1381771211        5.9954917855
  H        19.7312697811        6.6765230181        5.4966920920
  H         3.1616572379        9.8137700728        2.3634795585
  H         4.3269149640       10.2746997583        1.2128424987
  H         2.5875610554       10.2624376894        0.7900885760
  C        13.8619252412        0.5431320835       -5.9734561428
  N        13.6998636503       -0.8088119142       -5.9792909706
  O        12.7880271315       -2.4127069736       -4.6755706598
  S        14.3715213827        1.3534811069       -7.3959105405
  C        14.1363155903       -1.6581565362       -7.0597956862
  H        14.4683063532       -2.6672740986       -6.7455670034
  H        15.0234178970       -1.2487937540       -7.6589743345
  C        12.8353501024       -1.9425519936       -7.9675286664
  H        12.0135715409       -1.6670285723       -7.3595637870
  H        12.6794490836       -2.9178956511       -8.2481610593
  H        12.7146200740       -1.2809086922       -8.8176638092
  H        -1.6128959059       14.7287852177       17.0396419763
  C        -2.6853280708       14.6573205029       16.7626158315
  H        -2.9539019187       15.7149005026       16.8226595778
  C        -3.4891589703       13.9362354491       17.8454506332
  C        -2.6634098968       14.2153964511       15.3608207417
  C        -2.6998703713       12.7137808686       18.4136300413
  H        -3.5753871705       14.7924310290       18.5563015345
  H        -4.4992022408       13.6786033478       17.4969540427
  H        -1.8248761634       13.6124564058       15.0225716976
  H        -3.6047056609       13.7352492524       15.1440715955
  H        -2.5249748375       15.1399208728       14.7249453846
  C        -1.6972588263       12.9793537130       19.5520235919
  H        -2.1532741289       12.2845974545       17.5517929222
  H        -3.4214286963       12.0237299144       18.8699862039
  C        -2.3023996805       13.0989498157       20.9652653993
  H        -1.0283630430       12.0924068790       19.5137596176
  H        -1.0935735462       13.9186654293       19.2540817852
  C        -1.3611124491       12.5246699925       22.0463480681
  H        -3.2612119165       12.6405978235       21.1521769133
  H        -2.4905574562       14.1671031383       21.1537207175
  C        -0.1077985276       13.4519073922       22.3184533176
  H        -1.8943296721       12.2379573326       22.9293719340
  H        -1.0329987651       11.5386365717       21.7172801930
  C         1.0495293278       12.8312987146       23.0268330690
  H         0.1797578474       14.0686272590       21.4025119124
  H        -0.5766575926       14.2851521722       22.9011953567
  C         1.3855038386       11.4679868946       22.3673306047
  C         0.7101461214       12.1050938361       24.3086182888
  C         2.2278950986       13.8067225422       23.1472338246
  C         1.3662892918       10.3760399855       23.2354673933
  C         1.6957267980       11.1339917801       21.1359950222
  C         0.8111220915       10.7205864167       24.4486383417
  C         0.2257827584       12.6763450899       25.4769369135
  H         2.4380133328       14.1223393392       22.1401406792
  H         1.9706849054       14.7220228760       23.6454288984
  C         3.5257697207       13.2119608343       23.8081961908
  S         1.8920275689        8.9182416616       22.5550158453
  C         1.9921596580        9.8553384381       21.0315728268
  H         1.8686200632       11.9609800059       20.4701012147
  C         0.4487777910       10.1087492534       25.5838731726
  H         0.1242250353       13.7850687423       25.6033163247
  C        -0.0945520846       12.0260271189       26.6377853745
  H         3.8987141788       12.5354868483       23.0828101507
  H         3.1706491983       12.5811495498       24.6559568906
  C         4.5682295993       14.2669770356       24.2671089161
  C         2.5954319467        9.2177397421       19.8361282997
  C        -0.0362257236       10.6847607310       26.7824853004
  H         0.6206342303        9.0331285845       25.6198810762
  C        -0.5253188174       12.4402340700       27.8143781541
  H         5.2199996338       13.7295910749       24.7961670388
  H         4.1606414187       14.9906828601       24.9029057830
  C         5.1687198629       15.1035544814       23.1143871496
  C         2.4777562544        7.8654744924       19.4812090847
  C         2.8514041640       10.0803867543       18.6669471429
  C        -0.3861098090        9.9830085312       28.0789340188
  C        -0.6153095654       11.3644606969       28.7034334939
  S        -0.8619568330       13.9629487815       28.5885407958
  H         5.9551076687       15.7378035759       23.5637659048
  H         4.4193883783       15.7221995107       22.6265129498
  C         5.9617403939       14.2913238716       22.0684199960
  N         2.0938046643        6.7861266987       20.3557827321
  C         2.8654637390        7.4192113506       18.2248487622
  C         3.1747802514        9.6253509788       17.3311266098
  H         3.1130225156       11.0935260013       18.8402930968
  C         0.7957355272        9.1525632355       28.6900838014
  C        -1.7061416556        9.1967567535       27.8710875015
  C        -0.9785860248       11.8137383791       29.9929596662
  C        -1.2864203038       13.1640741550       30.0582471839
  H         6.7724907369       15.0020100791       21.9161146078
  H         6.1926566456       13.2976284482       22.4718719171
  C         5.1322028432       13.8631580011       20.8951473593
  S         2.2189924757        5.3206560387       19.6266521602
  N         2.7757847904        5.9744127144       18.1545479442
  C         3.1940057148        8.1711380458       17.0900745801
  H         3.5671914666       10.3885595470       16.6542481188
  H         1.1742752204        8.4695407070       27.9128707500
  H         0.4198927439        8.5968975610       29.5623932242
  C         1.9995619224        9.9044514264       29.2382609391
  H        -1.5911046881        8.3749769737       27.1464330945
  H        -1.9103386707        8.7445326929       28.8200078183
  C        -2.8267937219       10.1215323343       27.3111047774
  H        -1.2700754543       11.0839160058       30.7308724594
  C        -1.5324334405       13.9133881694       31.3479237487
  H         5.0174675639       14.6577898028       20.1788427042
  H         4.1975289621       13.5196886544       21.2227295030
  C         5.8397642516       12.7771798206       20.0494357140
  C         3.3355476552        7.4983064720       15.8435547785
  H         2.5654895937       10.4015929253       28.4139660564
  H         1.5855819496       10.6546622777       29.9176237314
  C         3.0087866235        8.9870533451       29.9774843770
  H        -2.6132546463       10.4685468780       26.3138206558
  H        -3.0572749404       10.9529257710       27.9426733257
  C        -4.1129398065        9.2833102985       27.0755023500
  C        -1.6090346990       15.3312678093       31.5076833852
  C        -1.7908998174       13.1662066909       32.5755594492
  H         6.1429680388       11.9132207323       20.5525308660
  H         5.1344614396       12.5125787895       19.2120458938
  C         7.0220359415       13.4122943229       19.3321280763
  H         3.2044680679        6.4346284389       15.9646268779
  C         3.6428848453        7.9300103865       14.6162741600
  H         3.3769311876        8.2841686176       29.2199837450
  H         2.5094302137        8.4141631507       30.7596696525
  C         4.1051917970        9.7223817251       30.6868760975
  H        -4.0563517755        8.6446459602       26.2013523296
  H        -4.3945627511        8.8464405781       27.9974598959
  C        -5.3594689512       10.1287099778       26.8743071268
  N        -1.3284858609       16.2817077584       30.4557100276
  C        -1.8524663462       15.9186002510       32.7497761321
  C        -1.9743322354       13.7232048669       33.7782790990
  H        -1.7929113828       12.0977512372       32.5456798744
  H         6.6657318543       14.3122713490       18.9701770142
  H         7.7748277588       13.5500026285       20.1359840126
  H         7.3290009003       12.7060082394       18.5332110303
  S         3.8929587454        9.5314000610       14.0897638586
  C         3.7394828721        6.8988192624       13.5564216547
  H         4.2087475036       10.7481935485       30.3278459582
  H         3.8488093546        9.7956125729       31.7095322005
  C         5.4713008325        9.1737934927       30.4571530555
  H        -5.3163890896       11.0090446705       27.5279272195
  H        -6.1430160835        9.6092042505       27.3553275505
  C        -5.5897200806       10.5416576585       25.4503816500
  S        -1.3587537545       17.7619801561       31.1207755342
  N        -1.7708784701       17.3051084576       32.6743556473
  C        -2.1619736082       15.1476823043       33.9092863257
  H        -1.9731552267       13.0298996497       34.5941101227
  C         4.2017992619        8.8278809911       12.5105799492
  N         4.2313348664        7.4913886446       12.4514420352
  O         3.6182991952        5.7150986860       13.8327856345
  H         6.2558391480        9.8348772635       30.7564081966
  H         5.5273300312        8.9515276490       29.4326663163
  C         5.4729874120        7.7967887381       31.2363247177
  H        -4.9215219472       11.2557807578       25.1456502959
  H        -5.4087846413        9.7624817079       24.6582861003
  C        -6.9571649144       11.2149375493       25.2856787083
  C        -2.5255245852       15.8001685434       35.1204608038
  S         4.6079468246        9.6023211634       11.0952531568
  C         4.4776847002        6.7535841574       11.2297312762
  H         5.2139985457        7.9134370937       32.2536000857
  H         4.6265265828        7.2200176519       30.8358414427
  C         6.7989334917        7.0729726405       31.0928647601
  H        -6.8306706687       11.8473448392       24.3276539021
  H        -7.1174049098       11.9696510147       25.9646426250
  C        -8.1623492345       10.2364114535       25.2476742895
  H        -2.3133266174       16.8169952569       35.2362198864
  C        -3.1709406776       15.3255225821       36.1989615388
  H         5.2803245922        7.1915303722       10.5685373732
  H         4.7419884875        5.7267867788       11.5302921710
  C         3.1638205798        6.7188850902       10.3851422511
  H         6.7402032966        6.0499510517       31.3496252412
  H         7.4387968013        7.5306028747       31.8428603617
  C         7.3221356357        7.1016629643       29.6512084093
  H        -8.5341376261       10.1654774334       24.2367053008
  H        -7.8307392018        9.2079360362       25.4262578511
  C        -9.2583559113       10.5518881319       26.2563762664
  S        -3.7702180704       13.7066681264       36.4944739574
  C        -3.2559666578       16.2256838897       37.3540423309
  H         2.4615796046        5.9961260406       10.7144036675
  H         2.7230818064        7.6280167208       10.3141772946
  H         3.4168418735        6.3373207973        9.3969370905
  H         6.5650327941        6.9559504463       28.8920462128
  H         8.0216661873        6.2571360945       29.4997404171
  H         7.7451832889        8.0857509421       29.4174821951
  H       -10.2413787667       10.6053560770       25.8663266714
  H        -8.9698570471       11.4233682769       26.7669236995
  H        -9.3701447708        9.7429288241       26.9583681184
  C        -4.2475566959       14.3234021442       38.0529994720
  N        -3.9742926479       15.6426401958       38.2736275519
  O        -2.8188416546       17.3758574438       37.4353204502
  S        -5.1377747799       13.4800382735       39.2486608160
  C        -4.1524762758       16.3746502142       39.5194737582
  H        -4.3982214892       17.4085965845       39.3911718722
  H        -4.9792864128       15.9769709634       40.1133527732
  C        -3.0069194784       16.2033327181       40.4751492303
  H        -2.9911124834       16.7962994857       41.4302760749
  H        -2.9561781285       15.1925947339       40.8345320683
  H        -2.0215616131       16.3107056860       39.9468594387
