352
i=
  H         2.6634947513        1.6385683199       13.6966896682
  C         3.5193481763        2.1647779272       13.3974409033
  H         4.3211979822        1.5477337488       13.0712427863
  C         3.1572692999        3.1192015421       12.2915753857
  C         4.0612642890        3.0169582070       14.5682156918
  C         4.3614051825        3.2705612111       11.3325308814
  H         2.8233941609        4.1467844783       12.5393789359
  H         2.3216005851        2.7086613976       11.6398702300
  H         4.5858815693        2.4214209098       15.2961934892
  H         3.3064706112        3.6980292009       15.0510611073
  H         4.9149266178        3.6705405887       14.3032135029
  C         4.9140727491        1.9812742552       10.6521928588
  H         4.0530744176        3.9761863630       10.6264388943
  H         5.2445187639        3.7007008626       11.9033912331
  C         5.2484672953        2.1594728024        9.1651141885
  H         4.2297626563        1.1633780657       10.6875400109
  H         5.7729013432        1.7541628609       11.2201217512
  C         6.5266822353        2.9573592962        8.9171829997
  H         4.4229011403        2.5204189298        8.6686770489
  H         5.3939080590        1.1275503006        8.7447028948
  C         7.7615208430        2.1081310261        9.1304703231
  H         6.4981230267        3.2193327458        7.8655945990
  H         6.5808576621        3.8701309273        9.5372837572
  C         9.0703867888        2.8521870047        9.4155701895
  H         7.9319258778        1.3868224491        8.2694471697
  H         7.5095124655        1.5164078763        9.9518377420
  C         8.8742801283        4.2415792682       10.1913743433
  C         9.5346617896        3.6343057244        8.1883453038
  C        10.1886151397        2.1000843583       10.1201416903
  C         9.0488422503        5.3852833315        9.3869303663
  C         8.4894445450        4.6555148604       11.4997890556
  C         9.5348919966        5.0120886678        8.1357399750
  C         9.9520590873        3.0532222562        6.9800401826
  H         9.9400861894        1.8031352662       11.1600745148
  H        10.3048141186        1.1604380948        9.6750504872
  C        11.5558491541        2.8376652524       10.0059483825
  S         8.6855963564        6.8689813869       10.2039647625
  C         8.2577621485        5.9899091274       11.6219019375
  H         8.3642829522        3.8540645818       12.2205678123
  C         9.9045860132        5.6181944240        6.9991233379
  H        10.0893314540        1.9343831541        7.0548500739
  C        10.4094408262        3.6970796877        5.8611530458
  H        11.6045392185        3.8659252515       10.2027867771
  H        11.9917171301        2.5810196410        9.0510522104
  C        12.4624541507        2.2053986992       11.0594924111
  C         7.8083903536        6.6539980036       12.8741853859
  C        10.3273929417        5.0364876427        5.7771396973
  H         9.7661127362        6.6925204362        6.9391189314
  C        10.7656894728        3.2618453670        4.6185734022
  H        13.5842207962        2.3499227957       10.8062549472
  H        12.2826486951        1.1462823511       11.1237595914
  C        12.2019213887        2.8562633033       12.3731231145
  C         7.9125577338        8.0805433922       13.1727852630
  C         7.2717522860        5.8017319812       13.9468969029
  C        10.6857138036        5.7075045889        4.4756590011
  C        10.9314066955        4.3319854186        3.7778517272
  S        11.0341347486        1.7896041063        3.7950245198
  H        12.5308338249        3.9444009850       12.3355782980
  H        11.1569539916        2.8772492217       12.6773764013
  C        12.9888948946        2.1937427536       13.5937978908
  N         8.2247602575        9.0636910637       12.1937803298
  C         7.6879831724        8.5752169254       14.4419044877
  C         7.0523117566        6.3125794558       15.2224597396
  H         6.7870482467        4.8647955979       13.7641844905
  C        12.0528223711        6.4279077365        4.6414515841
  C         9.6791616930        6.6394978691        3.8122525955
  C        11.3164281364        3.9496635321        2.4993063050
  C        11.3386081359        2.5971116095        2.3386608879
  H        13.9368211087        2.6411610954       13.4581369563
  H        13.0530258771        1.0873800942       13.4690093039
  C        12.4343920831        2.5488982924       14.9421456053
  S         8.3008832835       10.4915856862       13.0556755450
  N         7.7443646127       10.0119303533       14.4829216528
  C         7.3864686083        7.7493393623       15.5692532556
  H         6.6452799265        5.6690139016       16.0178726135
  H        11.9115812770        7.1277797574        5.4679487765
  H        12.2507312566        7.0169812309        3.7420132162
  C        13.2471285026        5.4609991370        4.9392913037
  H         9.5067629219        7.3557184434        4.5710851476
  H        10.2939301020        7.1633451105        3.1089180632
  C         8.3585033065        5.9824501102        3.2888868367
  H        11.5556339111        4.7480589801        1.7774269963
  C        11.6671820220        1.8261330698        1.0934560257
  H        12.4164504294        3.6464695337       15.0217752895
  H        11.4707104097        2.0739179753       15.1340064529
  C        13.4761938103        2.0573651133       15.9205826313
  C         7.1153480424        8.4325664453       16.7947775958
  H        13.0451830131        4.9314179089        5.7915669501
  H        13.4579624695        4.8140342943        4.0945834972
  C        14.5677971054        6.2037131671        5.2156631277
  H         7.5729882879        6.2037149871        3.9505900446
  H         8.4354336985        4.8539305286        3.4625096766
  C         8.0336606561        6.2135340965        1.8287919682
  C        11.7755782646        0.4337287594        1.0265030819
  C        12.1413419705        2.5273493015       -0.1718588594
  H        14.4902869985        2.4806168902       15.7953193086
  H        13.6425923624        0.9964167766       15.7487044623
  C        13.0905874546        2.0689125966       17.3648570862
  H         7.4407057179        9.4429234685       16.8466472227
  C         6.8469741503        7.9778942047       18.0485613471
  H        14.6722541056        6.6312494191        6.2084344337
  H        14.6793433245        7.0225716137        4.5085429307
  C        15.7291614785        5.2130205868        5.1076228208
  H         8.1562022443        7.2286443317        1.6082656366
  H         8.7242389733        5.5861341364        1.1972086203
  C         6.6327982314        5.7884672445        1.5077566359
  N        11.4801407368       -0.4472369051        2.1129237393
  C        11.9943269032       -0.2873823506       -0.1191941161
  C        12.3867042535        1.8022707866       -1.2665859772
  H        12.1674120235        3.6252332569       -0.1605146219
  H        13.3244707766        3.0815497184       17.6989247601
  H        13.7715783427        1.3589659464       17.8313758945
  H        12.0142414507        1.7703163449       17.4897768735
  S         6.3988070971        6.4008093206       18.4834375012
  C         6.8310519649        8.9518323450       19.2613154517
  H        15.8055568570        4.9454232313        6.1766009570
  H        15.5655509730        4.3077196272        4.5753743297
  C        16.9707167714        5.7786318046        4.6226409678
  H         6.4222193203        4.9140334590        2.1234965980
  H         6.3773550459        5.5843873990        0.4294492481
  C         5.6173851789        6.7443025172        2.1706809612
  S        11.7248933248       -1.9739715697        1.6312067646
  N        11.9493914823       -1.6453144380        0.0233309462
  C        12.4101870147        0.3520620202       -1.3467536229
  H        12.7643599000        2.3470814805       -2.0957659506
  C         6.0877909746        7.0597650827       20.0770778541
  N         6.3053812484        8.3496042518       20.2790087820
  O         7.1844808776       10.1004797090       19.1270680140
  H        17.0077365710        5.5408614752        3.6117207960
  H        16.8823917745        6.8724571966        4.5419704270
  C        18.2249200401        5.3456926074        5.3335865816
  H         4.7782784340        6.2452889906        2.5761500623
  H         5.9869007070        7.3335110800        3.0220341821
  C         4.9611211622        7.5572347527        1.0786673195
  C        12.6680037396       -0.4184893810       -2.5611751775
  S         5.4820174577        6.0367983059       21.3670951844
  C         6.0797907944        9.0447213918       21.6133573004
  H        18.0669613804        4.3091660791        5.6803913807
  H        19.0663169678        5.3249471374        4.6059842020
  C        18.5686252837        6.2900465698        6.5098620768
  H         4.1461146225        7.0590062786        0.6348080550
  H         5.5536275527        7.6787103413        0.1716661416
  C         4.4038998934        8.8872202953        1.6270946967
  H        12.4279620844       -1.4576597381       -2.6552529041
  C        13.1814931698       -0.1091017844       -3.7932032679
  H         5.4014870732        8.5450114104       22.3682024964
  H         5.7943791252       10.0372854819       21.4374490070
  C         7.3553078475        9.1943111832       22.3522535482
  H        17.6394015372        6.7123255307        6.9589963161
  H        19.1426946487        7.1634081765        6.2281233169
  C        19.3578064067        5.6374673272        7.6216243540
  H         3.3047122045        8.8640106752        1.6792644114
  H         4.7920660932        9.0187417420        2.6781565496
  C         4.9921960678       10.1381218693        0.8858946552
  S        13.8241023124        1.4253911002       -4.2133028578
  C        13.2365569817       -1.1484837222       -4.8883423433
  H         7.2684423917        8.7961262962       23.3576955014
  H         7.6158065915       10.2739689741       22.4850104655
  H         8.2538812925        8.7615834603       21.8353068738
  H        18.7125474951        5.0675733036        8.3019633603
  H        20.0103373914        4.8205245327        7.3304465415
  H        19.9354019581        6.2973917159        8.2359656567
  H         4.9700148308        9.9202683115       -0.1835141830
  H         4.2677925887       10.9536921374        1.0814692640
  H         6.0683092907       10.2776979442        1.0727505752
  C        14.0175384557        0.7513166483       -5.8470301437
  N        13.7226053608       -0.5717610317       -6.0056592693
  O        12.9101701349       -2.3004896747       -4.7365506396
  S        14.5992141434        1.6846401338       -7.1553559474
  C        13.8116909519       -1.3093015052       -7.2961507346
  H        14.0807775691       -2.3705985376       -7.1346089616
  H        14.5352823883       -0.8270287681       -7.9845982375
  C        12.4577561432       -1.3515604793       -8.0234525662
  H        12.1484071670       -0.4397800250       -8.4994912262
  H        11.6186353922       -1.4762013574       -7.3628007519
  H        12.5120342224       -2.0547389307       -8.8255842372
  H        -2.7483109809       15.1746432536       15.8188900280
  C        -3.2658435383       14.3608185786       16.3740035183
  H        -4.1792278913       14.7042526258       16.9052263900
  C        -2.1711299849       13.9726489959       17.3456868487
  C        -3.7409324642       13.1685728231       15.4013092141
  C        -2.5303262037       13.8621530452       18.8423165632
  H        -1.7023895785       13.0965216421       16.9891835583
  H        -1.4226982651       14.7221776517       17.3686969010
  H        -2.9359161371       12.4804459841       15.1849254216
  H        -4.4354560912       12.5980164924       16.0138052336
  H        -4.3023011619       13.2895091394       14.4759065639
  C        -1.3676860647       13.2064322723       19.6304442196
  H        -3.5523069051       13.3205776950       18.7586204229
  H        -2.7645056894       14.8247694538       19.3376527364
  C        -1.6293739413       13.4721400616       21.1763142437
  H        -1.2068986905       12.1557565083       19.4617414196
  H        -0.4067385153       13.6600789596       19.3748504556
  C        -0.5154828044       12.8617968629       21.9690419851
  H        -2.5226416223       12.9091347618       21.4348255326
  H        -1.7460474992       14.5161483815       21.4074922492
  C         0.3378663534       13.9184023778       22.6207240895
  H        -0.9761517591       12.3137216654       22.7515156987
  H         0.0857159560       12.1466069518       21.3416925834
  C         1.6330811471       13.2754213328       23.4022715934
  H         0.7417230125       14.5660636298       21.8311673904
  H        -0.2035416800       14.6076799864       23.2339942505
  C         2.1036142074       11.9786682644       22.7425288256
  C         1.0986942505       12.5281344539       24.5874801616
  C         2.7232325978       14.3163061626       23.6953360788
  C         1.8525076083       10.8379571434       23.5463387511
  C         2.6071882469       11.6112246769       21.4470299483
  C         1.1767816981       11.1974578716       24.7045461204
  C         0.6071265060       13.1738035490       25.7364332303
  H         2.8027700599       15.0451973578       22.8604269801
  H         2.3774587967       14.9374216276       24.5290090110
  C         4.0744561872       13.7730104792       24.0502127698
  S         2.2382714746        9.3597129279       22.7217777360
  C         2.6734421882       10.2475404090       21.2698799370
  H         2.8081194595       12.4837558214       20.8355892898
  C         0.7011387158       10.5496191103       25.7597002781
  H         0.5622423910       14.2430632142       25.8026237984
  C         0.1960443804       12.4970203679       26.8242387385
  H         4.3198583064       13.0085479865       23.3420376646
  H         3.9999242224       13.3225678854       25.0330391694
  C         5.2195017998       14.7558866993       24.1440127848
  C         2.9935296668        9.5864886061       19.9800578117
  C         0.1975194123       11.1463486176       26.9063613322
  H         0.6904371997        9.4269731094       25.7258031519
  C        -0.2902228707       12.8747312174       28.0219419699
  H         5.9202178984       14.5650013791       24.9009584301
  H         4.7653945134       15.6453039556       24.6595679483
  C         5.8796282587       15.0543186789       22.7750202888
  C         2.7999879515        8.1974650681       19.6751135274
  C         3.5964114629       10.4058505337       18.9160158990
  C        -0.2440184693       10.4410397739       28.1552283637
  C        -0.5687197930       11.7434286885       28.8199536804
  S        -0.6033154012       14.3893282213       28.8210897912
  H         6.3062983335       16.0357989171       22.9029208816
  H         5.1478355224       15.0963521197       21.9938100092
  C         6.9489621522       13.9991276414       22.3761495114
  N         2.3110204520        7.2895243887       20.6316615505
  C         3.0285445263        7.6382652897       18.4204372895
  C         3.9209936760        9.8410081968       17.6662077103
  H         3.8188038756       11.3920854159       19.2514400179
  C         0.9041155718        9.6736311080       28.8185956678
  C        -1.4365125481        9.5348498713       27.9918947270
  C        -0.9087232113       12.1736623319       30.1535857427
  C        -0.9631806390       13.5134767858       30.2902547836
  H         7.8919448833       14.4934592359       22.5349369526
  H         6.8223378737       13.2136154605       23.1231988433
  C         6.8744895815       13.1340766823       21.1105197393
  S         2.2448758452        5.8531856989       19.9073592504
  N         2.5955935641        6.3289743658       18.3931285305
  C         3.5727744766        8.3931603322       17.3936934820
  H         4.4348085212       10.4623709393       16.9394921907
  H         1.2657537416        8.8179417160       28.1958947306
  H         0.5922223376        9.1435555400       29.7374131764
  C         2.0433111438       10.7013520925       29.1460066549
  H        -1.1187867844        8.7547288177       27.3571520382
  H        -1.6691880615        9.0588168907       28.9482723106
  C        -2.7196001254       10.2163267081       27.5501425214
  H        -1.1065048513       11.4484231030       30.9336258131
  C        -1.2599149203       14.1551607173       31.6474115715
  H         5.7870447160       13.1038196753       20.8967111894
  H         7.0962476264       12.1392614916       21.3602982276
  C         7.8551412880       13.7343484942       20.1572017662
  C         3.6648778998        7.7405384267       16.0988281046
  H         2.4008036235       11.3362639388       28.2927957370
  H         1.6208020809       11.4042274258       29.8476901380
  C         3.2166262534        9.8855356014       29.8050640042
  H        -2.5151434003       11.0288909303       26.8400040790
  H        -3.1886252726       10.7352909508       28.4063874106
  C        -3.7998003287        9.2501198796       27.0540263116
  C        -1.3123166701       15.5678818086       31.8846402996
  C        -1.5210820690       13.2073965283       32.7594097250
  H         7.8227236426       14.8259701324       20.2652324949
  H         8.8420590041       13.3500136907       20.1272185716
  C         7.3433909315       13.5683981127       18.6923050136
  H         3.5563293037        6.6583127750       16.2041251659
  C         3.8886415373        8.2254705755       14.8530223888
  H         3.7932641229        9.2832258951       29.0803901356
  H         2.7762919723        9.0740550282       30.4764361025
  C         4.3177041104       10.7603488027       30.4220127879
  H        -3.5775111650        8.9770479618       26.0131121821
  H        -3.8230840133        8.3341093427       27.7445779674
  C        -5.1235629371        9.9862209502       26.9866793881
  N        -1.0452171243       16.5207764213       30.9396663839
  C        -1.6722137640       16.0916085999       33.0663124403
  C        -1.8168181147       13.7779531929       34.0202755497
  H        -1.3077442492       12.1699266925       32.7319816704
  H         6.3738918664       13.0037034987       18.6686811152
  H         7.3922111164       14.4554118225       18.0968506788
  H         8.0021920457       12.8580050722       18.1890881554
  S         4.1521283867        9.8916654906       14.4689374294
  C         3.9276196383        7.3232225541       13.6541065318
  H         4.4434262181       11.7060568417       29.8599766139
  H         4.0391123547       11.0737605712       31.4156434887
  C         5.6934016339       10.0641964118       30.4301219791
  H        -5.0752361227       10.9175734040       27.5540404169
  H        -5.9251607845        9.4645670264       27.5600532539
  C        -5.6608080051       10.0782213085       25.6043741519
  S        -1.2161716505       17.9862227522       31.5924025040
  N        -1.7207358379       17.4407826910       33.1198836770
  C        -2.0033479009       15.2701484417       34.2051426625
  H        -1.8640745966       13.0038400003       34.7825404199
  C         4.3554130177        9.3416861546       12.7987403647
  N         4.2864026436        8.0271548073       12.5700873655
  O         3.7169681672        6.1442511828       13.7704438437
  H         6.4330848654       10.8608870854       30.6186563788
  H         5.9051832228        9.8599561021       29.4067680579
  C         5.7771141754        8.7259599347       31.1575278815
  H        -5.0863019201       10.6752554023       24.9464934839
  H        -5.7138320257        9.1008733164       25.1457525486
  C        -7.0452479949       10.7771505076       25.6105851027
  C        -2.3214204248       15.9325981315       35.4446400591
  S         4.9027095431       10.2588074560       11.3987190721
  C         4.5851724230        7.3219848021       11.3231073010
  H         6.2179133788        9.0091788042       32.0834564571
  H         4.8597728902        8.2102443676       31.4628721419
  C         6.7000717675        7.8062821998       30.4205377003
  H        -7.2066941878       11.2103855955       24.6197223558
  H        -7.1195715909       11.5454035907       26.3561027344
  C        -8.1474072995        9.7660208130       25.8582449936
  H        -1.8244752413       16.7804837368       35.6604317454
  C        -2.9722000220       15.4548618301       36.5435232759
  H         5.3640350916        7.9020125426       10.8460404807
  H         5.1048823614        6.3461308986       11.4617166950
  C         3.3585290639        6.9052883571       10.4177144864
  H         7.5798734502        8.4027846685       30.1438416248
  H         6.3386246062        7.4903502768       29.4824650099
  C         7.0402453623        6.5612115439       31.1789594162
  H        -8.2687091806        9.2389956045       24.9128948567
  H        -7.8855564138        9.0916522642       26.6450209116
  C        -9.4696047844       10.3629797719       26.2323767883
  S        -3.5232357535       13.8167879105       36.8048822417
  C        -3.1822878848       16.4023333100       37.6974199570
  H         2.7422407202        7.7227188216       10.0598214844
  H         3.7020397729        6.3734565118        9.5093274233
  H         2.6953254404        6.3591521999       11.1006659021
  H         7.9788618871        6.7996481277       31.6648911153
  H         7.1242482798        5.6736031185       30.5193430471
  H         6.4238274830        6.3224669381       32.0443595852
  H       -10.0886542274       10.4710944463       25.3980231946
  H        -9.3027773143       11.3650144211       26.6953571567
  H       -10.0494414875        9.6702334342       26.9178186450
  C        -4.0902330093       14.4263259718       38.3782389328
  N        -3.8323951522       15.7380051950       38.6320928971
  O        -2.8029390284       17.5491173614       37.7127451401
  S        -4.7093891991       13.3785983698       39.6452518023
  C        -4.1679583261       16.2949696861       39.9291490209
  H        -4.5210447586       17.3598450136       39.6742069537
  H        -4.9995202012       15.8313488645       40.4272537123
  C        -3.0354264547       16.3850768905       40.9090218879
  H        -2.4369035355       17.2811375910       40.8323257497
  H        -3.3873408850       16.2894901021       41.9359925492
  H        -2.3905716641       15.4804866899       40.8837463170
