352
i=
  H         4.5534393138        1.5373654836       13.0429755368
  C         3.8665199220        2.3572863341       13.1906394773
  H         4.4401830778        3.2876996022       13.4842095265
  C         2.9973055593        2.5747877379       11.9723156331
  C         2.9977320015        1.9118339316       14.3289381453
  C         3.6540225318        3.0443356036       10.6528867587
  H         2.3098430756        3.3704894557       12.2831921004
  H         2.4082709094        1.7131079240       11.6078177616
  H         2.2139369499        1.2961224548       13.9934318191
  H         2.5315157046        2.6890965810       14.8753458607
  H         3.6104737839        1.2010365516       14.9593415090
  C         4.4847305359        1.8609939341        9.9941925125
  H         2.8906415974        3.5040902581        9.9817000438
  H         4.4328303952        3.7858011857       10.7697299815
  C         5.1501080814        2.0837603015        8.5993139822
  H         3.7900680502        1.0744376210        9.8391940520
  H         5.1837630272        1.3569435433       10.6739012173
  C         6.3949922915        2.9871313799        8.6957581885
  H         4.4780389089        2.5373222327        7.8868709937
  H         5.3379911855        1.0810006069        8.1431716911
  C         7.6789503312        2.3177037439        9.1740669967
  H         6.7292654710        3.3073967016        7.7145824753
  H         6.1747994906        3.9945144665        9.0646187031
  C         8.9399197453        3.2230362968        9.2782113659
  H         7.9209432891        1.5584831777        8.4617006033
  H         7.4249004986        1.7186145123       10.0176804203
  C         8.5202391142        4.4358634836        9.9715989213
  C         9.2965259022        3.8835633206        8.0131772218
  C        10.2426250772        2.5042870289        9.8247453214
  C         8.6812103640        5.5273885613        9.1345373293
  C         8.0104364656        4.7650791036       11.2283046817
  C         9.1775469864        5.1988505709        7.8513994018
  C         9.7318083153        3.2727854974        6.8245761722
  H         9.9373007410        1.8322503619       10.6828136942
  H        10.7280664523        1.8017318334        9.1333425703
  C        11.4877735939        3.2838993507       10.4262226368
  S         8.3134726754        6.9838577726        9.8564152359
  C         7.9078379887        6.1106884611       11.3069579939
  H         7.7725010979        3.9706290965       11.9594853428
  C         9.6287922070        5.8465019904        6.7383158520
  H        10.0494681556        2.2219422500        6.9900212107
  C        10.1476752451        3.8900685014        5.7037050377
  H        11.2648278379        4.2725876679       10.8273020029
  H        12.1538364958        3.5519646552        9.6481901052
  C        12.3458122601        2.4688875129       11.3639482024
  C         7.4687937729        6.7613234791       12.6234464910
  C        10.1065532032        5.2595041171        5.5851235241
  H         9.5055290122        6.9353588791        6.7106243288
  C        10.5997696757        3.5090721068        4.4459903828
  H        13.1038954127        3.1282926659       11.5555376211
  H        12.7005053152        1.5184524506       11.0120826673
  C        11.6214229492        2.3048670472       12.7328613350
  C         7.3916891003        8.1431555759       12.9053864730
  C         7.0958893439        5.8555967499       13.7887221100
  C        10.6519276529        5.9347755188        4.2983268594
  C        10.9064576263        4.5611624030        3.5794082803
  S        10.7206176165        1.9941625135        3.6298913081
  H        11.0362899351        3.1994873318       12.8326133333
  H        10.8793919782        1.4572012124       12.7943053782
  C        12.5932408255        2.0934544567       13.7984497086
  N         7.8934624055        9.0678419651       12.0086932516
  C         7.1966467566        8.7120012178       14.1622207990
  C         6.6432516086        6.4001001188       15.0270037322
  H         6.9061304231        4.7962659994       13.6038809157
  C        11.8977513894        6.8926028147        4.5721134707
  C         9.5959132534        6.7849452215        3.5582589863
  C        11.2141053280        4.1635485304        2.2691119486
  C        11.2888700465        2.7968754531        2.2208218738
  H        13.2647453264        2.9416522954       13.9103465005
  H        13.2252087435        1.3205650256       13.5838933990
  C        12.0615789723        1.8465387383       15.2364437576
  S         7.9609138528       10.5222665821       12.7532998520
  N         7.3068969321       10.1421209671       14.1904396602
  C         6.6835294462        7.9012843416       15.2752104851
  H         6.0858563476        5.7799422181       15.7886049124
  H        11.5935783162        7.6208426854        5.3543689876
  H        12.0412257938        7.4820583925        3.7104002255
  C        13.1726365129        6.0108001413        4.8123766973
  H         9.3203200234        7.5842340654        4.2039245170
  H        10.1126066412        7.2354785124        2.7047810256
  C         8.3682022919        6.0843613978        2.9637039564
  H        11.3506595705        4.9272594224        1.4428608349
  C        11.7138610918        2.0075469574        1.0257349820
  H        11.2624430466        2.4737521830       15.4686182430
  H        11.5544034891        0.8860565668       15.3476909972
  C        13.3010525508        1.8602944948       16.2092932445
  C         6.3043104665        8.5447120674       16.5204059300
  H        12.9218359608        5.3451039241        5.6183144790
  H        13.3620733274        5.3216780070        3.9425291140
  C        14.2652886958        6.9384248529        5.0913285775
  H         7.8974360013        5.2926088416        3.6225661766
  H         8.7357349642        5.3535469508        2.1661189505
  C         7.3075841488        7.0262568280        2.4432232374
  C        11.7416191267        0.6020625172        0.9381622751
  C        12.0375736769        2.7659764229       -0.2396433214
  H        14.1269545885        2.0716088840       15.5627884262
  H        13.4851304981        0.8477510949       16.5273933418
  C        13.1050198364        2.9027332582       17.3116940241
  H         6.4980099973        9.5768672380       16.4960743331
  C         6.1167443644        8.1594983627       17.8245002979
  H        13.9148975271        7.5320736743        6.0111442400
  H        14.3436919007        7.6135302727        4.2433788935
  C        15.6365010883        6.2522958748        5.1912622749
  H         7.1010973696        7.9010874990        3.1420746290
  H         7.7254786833        7.5082601754        1.5331108463
  C         5.9629010168        6.3676238135        2.1082219252
  N        11.5584186365       -0.3285718154        1.9255600322
  C        11.9822329658       -0.0310892983       -0.2469561516
  C        12.2125296021        2.1132342091       -1.4530968207
  H        12.1943531038        3.8277432648       -0.2135659874
  H        13.2409248264        3.8172074903       16.8748848165
  H        13.6510384439        2.7011149232       18.1818154875
  H        12.0219585840        2.8480285867       17.6669879735
  S         6.0010730023        6.4673245475       18.4711046281
  C         5.9963689684        9.1777237797       18.8994788040
  H        15.6209067403        5.3116169065        4.5981737330
  H        16.4615124394        6.8470795140        4.7517814571
  C        15.9074980234        5.9370255457        6.6705900223
  H         5.5654555018        5.9679848920        3.0035095540
  H         6.0669067738        5.5422618335        1.4332215291
  C         5.0288046355        7.3440133260        1.3169137363
  S        11.5670631018       -1.8191384422        1.4096121373
  N        11.9334865161       -1.4015062490       -0.1400859614
  C        12.1840173283        0.6282253678       -1.4917069306
  H        12.5351504311        2.7319000888       -2.2159423382
  C         5.8455579104        7.3023760786       20.0429464385
  N         5.6838679460        8.6259821153       20.0899025095
  O         5.9675176294       10.4181166908       18.7098834579
  H        15.7190023502        6.7504100072        7.3805222449
  H        15.2827703323        5.1832943832        7.1148895881
  C        17.2192980937        5.2590931498        6.9669840925
  H         5.7952236911        7.7180822603        0.6790104931
  H         4.2961751583        6.7538631074        0.6843547908
  C         4.2979340287        8.3749755538        2.2629721502
  C        12.4221060253       -0.1080247400       -2.6103243057
  S         5.8218659449        6.5263594531       21.5689178954
  C         5.7126009716        9.4614640907       21.2946004265
  H        17.2261116400        4.4780786384        7.7611154067
  H        17.3506765884        4.4878612688        6.1376497697
  C        18.4044582760        6.2448628385        6.9994430900
  H         4.9746608551        8.8242932377        2.9109180242
  H         3.5089605380        7.8838198998        2.8127885470
  C         3.5703386568        9.4180302713        1.4413990097
  H        12.1764596988       -1.1695943484       -2.4831207865
  C        13.0454086329        0.2514588871       -3.8212367568
  H         5.1372719097        9.0855259133       22.1302889774
  H         5.2313044218       10.3207906972       20.9559164101
  C         7.1288035977        9.7013477145       21.6940502420
  H        18.7789260148        6.5550193225        8.0005055357
  H        18.0937114368        7.0953461779        6.3751927203
  C        19.6219358943        5.6492986058        6.3289372560
  H         2.9072242514        8.9749832651        0.7925767674
  H         2.9013052981        9.9175382759        2.1777944463
  C         4.4617900593       10.4157070908        0.6501712980
  S        13.6821096282        1.7518498544       -4.2581859337
  C        13.1238425361       -0.8084179285       -4.8799425473
  H         7.8519919287        9.2953022784       20.9436718941
  H         7.2741197822        9.1329690387       22.5979037914
  H         7.3629624104       10.7450386775       21.9501938265
  H        20.3259330776        6.4260379322        6.0055551787
  H        20.2109378293        5.2101622539        7.1406066937
  H        19.5088327679        4.9619707802        5.5020611700
  H         4.3591399483       11.3500045150        1.1813835224
  H         5.4751321264       10.0660490723        0.4810411956
  H         4.0470842657       10.6290339841       -0.3822905560
  C        14.0597565100        0.9429421275       -5.8242715131
  N        13.8368657189       -0.4029551041       -5.9141014260
  O        12.5963338649       -1.9745848022       -4.7308256116
  S        14.9393449587        1.7787684957       -7.1124442078
  C        14.1843875413       -1.2487374703       -7.0758964579
  H        14.3167680137       -2.2715607975       -6.8483652190
  H        15.1704009894       -0.9011595884       -7.5043614259
  C        13.0386268570       -1.2611797038       -8.0787052338
  H        12.3197809441       -0.4128936747       -7.9375567274
  H        12.4994258354       -2.1842244989       -8.1705678021
  H        13.4956648440       -1.0485388652       -9.0965717458
  H        -4.0206964206       14.2660554223       16.1993770961
  C        -3.3075943451       13.4234376322       16.1851247147
  H        -3.9053853045       12.4847364412       16.1894817824
  C        -2.3412692453       13.3138844235       17.3981876702
  C        -2.5932912735       13.3281372530       14.8781143008
  C        -2.9706169195       13.5673224903       18.7616399605
  H        -2.1255998445       12.2553474093       17.3564630573
  H        -1.4456562761       13.8890023706       17.3619919343
  H        -3.2862421568       13.3714046260       14.0450280755
  H        -1.8623199923       14.1724871053       14.7177488835
  H        -2.1277432479       12.3746706491       14.8397894694
  C        -1.9356492674       13.6842691688       19.8364737023
  H        -3.6758523863       12.7755975014       19.0463686557
  H        -3.5774040373       14.4305927210       18.7347669276
  C        -2.5199340545       13.3685854576       21.2795282738
  H        -1.1737774993       12.8582926926       19.6265110071
  H        -1.2894531663       14.6323901773       19.7753287520
  C        -1.4895953146       12.7675022108       22.2508212184
  H        -3.3810259110       12.7643611240       21.3640796731
  H        -2.7649342739       14.4106177990       21.7261782548
  C        -0.2243438458       13.6394095938       22.4879438946
  H        -1.9739837772       12.4878010252       23.2351127473
  H        -1.1893906461       11.8546974098       21.8121801137
  C         0.9158159278       13.0259877961       23.3428013769
  H         0.2554144482       14.1144192451       21.5994094507
  H        -0.4497638716       14.4910813548       23.2115005049
  C         1.1561598295       11.7390749984       22.6861152906
  C         0.3949353031       12.4228692055       24.6234518730
  C         2.2151046499       13.9914983420       23.4201548343
  C         0.7836810383       10.6090753586       23.4812281411
  C         1.6942817413       11.3765291979       21.4163714914
  C         0.3250103144       11.0590014636       24.7186731317
  C        -0.0726324184       13.0519098807       25.7929407712
  H         2.3760669572       14.6724471553       22.5512243339
  H         1.9434557576       14.6160566860       24.2268940184
  C         3.4300845068       13.1640357589       23.8226960713
  S         1.0881993429        9.1213319664       22.7109792014
  C         1.7336604303        9.9854343844       21.2950611290
  H         1.9896228023       12.1076391417       20.7409625335
  C        -0.0278690552       10.4293851130       25.8928442676
  H        -0.2203500968       14.1269386683       25.8001023271
  C        -0.5333191003       12.4073933164       26.8998124017
  H         3.6962088476       12.2984688069       23.1220935810
  H         3.1692613449       12.5762349319       24.6902246976
  C         4.6795813899       14.0611702998       23.9697293546
  C         2.1774644365        9.2943565358       19.9983793420
  C        -0.5558480136       11.0571653463       27.0106164828
  H         0.1742393628        9.4147621953       26.0562734792
  C        -0.9738575189       12.8453044660       28.0801836300
  H         5.4277849917       13.4059357975       24.4863024385
  H         4.5039943297       14.8305479496       24.5964570754
  C         5.2515197814       14.5841628526       22.6939832488
  C         2.2182892230        7.8303824474       19.7078507873
  C         2.4496524402       10.0848271397       18.7617301106
  C        -0.9585552732       10.4336104463       28.3051131052
  C        -1.2115750851       11.7525148307       28.9005826337
  S        -1.0952548090       14.3528169784       28.9123863202
  H         5.7237056063       15.4905026650       22.9190571373
  H         4.3702926794       15.0383124665       22.1064621646
  C         6.2851135044       13.7056911594       21.8344445283
  N         1.8932196184        6.8888436673       20.5741298846
  C         2.4606292952        7.3065747452       18.4045121455
  C         2.7090830119        9.5532490847       17.4600224203
  H         2.6149610214       11.1846052557       18.9411729843
  C         0.1539693936        9.5854920953       29.0934287802
  C        -2.1582744604        9.5207963326       28.1125104237
  C        -1.4826760957       12.1580327780       30.2069713607
  C        -1.4437329177       13.5297379985       30.4217705920
  H         7.2357939298       14.1074847045       21.9830252034
  H         6.3172006487       12.8111285651       22.3702875419
  C         5.9136637660       13.4766781225       20.3877085787
  S         2.2709544019        5.4509826125       19.9399567110
  N         2.6369010940        5.9439591839       18.4276025169
  C         2.7637678481        8.1066811290       17.2943100874
  H         2.9154333782       10.3375475597       16.7358111958
  H         0.2343325597        8.5110957361       28.6934781596
  H        -0.2896345040        9.3467530858       30.0599631216
  C         1.3600485870       10.4062774763       29.4297670449
  H        -1.8865824781        8.7669472418       27.3550680383
  H        -2.3122181617        8.8898133459       29.0090010903
  C        -3.3808307472       10.2565543488       27.5492524919
  H        -1.7681949033       11.4685586468       30.9439226151
  C        -1.7008495286       14.2731597994       31.6413754972
  H         5.1482981747       14.2197256975       20.0579452460
  H         5.4500395578       12.4941265344       20.3501761578
  C         7.0624862112       13.4225061642       19.4283598187
  C         2.9578148171        7.4972095594       16.0028609395
  H         1.8216447096       10.5928294290       28.4907385458
  H         1.1582367538       11.2981571699       30.0365150857
  C         2.4238450029        9.4800452901       30.0754130828
  H        -2.9691476294       10.6997321152       26.6251607084
  H        -3.7098973372       11.1432984990       28.1010272725
  C        -4.6140000782        9.5336862937       27.2398592551
  C        -1.7743584060       15.6974602384       31.8066125009
  C        -1.8700588048       13.4908444664       32.9014569396
  H         7.8864923119       14.0670357440       19.6692127700
  H         7.4754826724       12.4579590980       19.4332777500
  C         6.6405236782       13.5278148635       17.9175534170
  H         2.9105176418        6.4324986339       15.9378749328
  C         3.3021071362        8.0378316147       14.7698422650
  H         2.7848224358        8.8028557289       29.3274706948
  H         2.0020597409        8.9913711778       30.8403471328
  C         3.6260054337       10.2921011467       30.7501856164
  H        -4.4011117796        8.7876898181       26.4703498929
  H        -4.8991977485        9.0173026977       28.1578462323
  C        -5.7701390868       10.4997138802       26.6843225171
  N        -1.6526973528       16.6083962819       30.7571584715
  C        -2.2095477537       16.3399045296       32.9561714913
  C        -2.2307642807       14.1357367011       34.1102235337
  H        -1.9414745173       12.4412479544       32.7781971268
  H         6.7080603810       12.5396943992       17.4800833133
  H         5.6657472989       13.8050079463       17.7520500634
  H         7.2538072753       14.2090659637       17.3105265089
  S         3.6291108459        9.6611294578       14.3862964952
  C         3.5767450505        7.1127483711       13.6363117908
  H         3.9757259301       11.1728722336       30.1849234561
  H         3.3425000217       10.6058911967       31.7656013601
  C         4.8931720313        9.3996901775       30.8991552388
  H        -5.5028150693       11.2309130697       25.9449276454
  H        -6.2358379707       11.0362849317       27.5280445758
  C        -6.8845554467        9.6152349173       25.9310549140
  S        -1.4977645384       18.0839210338       31.4237895451
  N        -2.2183603077       17.7297897880       32.8110610765
  C        -2.4606550521       15.6077246490       34.1511625962
  H        -2.2908979904       13.7061429480       35.0766569459
  C         4.1671968043        9.1560895519       12.8054343919
  N         4.0466461884        7.8089340054       12.6154898183
  O         3.3559224046        5.9319732080       13.6472759377
  H         5.6709675828       10.0620562659       31.3905816091
  H         5.3291010522        9.1462503850       29.9377180700
  C         4.7023836237        8.0909374674       31.5760451352
  H        -6.3809174745        9.0949207985       25.1093712709
  H        -7.2102097442        8.7852788751       26.5226267664
  C        -8.0171644574       10.4644125718       25.4011350709
  C        -2.7672329801       16.3708086582       35.3319462185
  S         4.7164441227       10.1860847004       11.4282064368
  C         4.3198763827        7.2155721506       11.2718252232
  H         4.2923445160        8.2744470716       32.5559480733
  H         3.9892408740        7.4128235128       31.0251013006
  C         5.9710454271        7.2681988157       31.5676544489
  H        -7.7166111874       10.9543523977       24.4820518692
  H        -8.2194182787       11.1915523243       26.1451994375
  C        -9.3252063276        9.6704039782       25.1144149713
  H        -2.7849860642       17.4107575720       35.2779653849
  C        -3.2636088326       16.0262512758       36.5751819600
  H         5.2318445708        7.5287865362       10.7982876132
  H         4.5132501207        6.1235014626       11.5065383860
  C         3.1734138833        7.3076200392       10.3000942833
  H         6.0066617713        6.4606434472       32.2832076874
  H         6.8153566271        7.8974526876       31.8599621834
  C         6.1710360616        6.5091564675       30.2686952243
  H       -10.0017182322       10.2443850523       24.4403655911
  H        -9.0963492111        8.7237556568       24.6147803557
  C       -10.1425433434        9.4292732124       26.4216213565
  S        -4.0640972647       14.5386022814       36.7883796678
  C        -3.4642542785       17.0344608711       37.6708827868
  H         2.9452095043        6.2543448712       10.1276091275
  H         2.3648352626        7.8659178998       10.7585114625
  H         3.4365904053        7.6474462277        9.2669399713
  H         7.0222755009        5.9087172273       30.4753884753
  H         6.3377932612        7.1634545608       29.4752817471
  H         5.2730264152        5.8745443175       30.0517208347
  H        -9.7352505250        8.4975074388       26.8766493247
  H       -11.2058188705        9.3505903465       26.3175020583
  H        -9.8785069576       10.2435155858       27.1235289740
  C        -4.2941597800       15.1600660551       38.4512053812
  N        -4.0815107198       16.5116113558       38.6939838897
  O        -3.0413614353       18.1904846230       37.5861867882
  S        -4.8226322376       14.2132545925       39.7798048514
  C        -4.2892513781       17.2254174091       39.9718677042
  H        -4.8468270983       18.0974245058       39.7636838884
  H        -4.9528281247       16.5665438572       40.5343191730
  C        -2.9990585110       17.4501865367       40.6845612316
  H        -3.0656295446       18.4348487892       41.2720760604
  H        -2.6206122987       16.6117195530       41.3090198328
  H        -2.2814975509       17.6742894208       39.9219891246
