352
i=
  H         5.3159517171        1.7933147423       12.9634730157
  C         4.6180913592        2.5842072434       13.0658207931
  H         5.1232527256        3.4450057426       13.3955579442
  C         3.8711320028        2.7788551570       11.7622231348
  C         3.6325308884        2.2939134068       14.2065020665
  C         4.8150725333        2.8357718657       10.6264651332
  H         3.2452728266        3.7239713351       11.7886999476
  H         3.1994817605        1.9471691257       11.5581577503
  H         4.0032419136        1.7575586402       15.0482642528
  H         2.7871963187        1.7998559523       13.7506338966
  H         3.2258407829        3.2226754287       14.6373111769
  C         5.3221905954        1.4312334587       10.1209282580
  H         4.3409970091        3.3831697298        9.7557655168
  H         5.6718334065        3.4294810777       10.9235031849
  C         5.9187208389        1.4314788295        8.7293077893
  H         4.4834649445        0.6862554040        9.9588377366
  H         6.1027873618        0.9826784433       10.7690946036
  C         7.2227822920        2.3854761468        8.7446535522
  H         5.1084527595        1.6194430458        8.0653022712
  H         6.2691881109        0.4439665602        8.5249767019
  C         8.4735340076        1.8042190900        9.4738802627
  H         7.5520026461        2.6902414027        7.7337807839
  H         6.9943026983        3.3733140888        9.1183966332
  C         9.6801516396        2.7859996818        9.7141252991
  H         8.7293441561        0.7912708149        9.1079114619
  H         7.9992646172        1.7002153992       10.4334706442
  C         9.2038737246        4.0620631510       10.3936458544
  C        10.0093620060        3.5092107852        8.4677787805
  C        10.9051160886        1.9984162914       10.3522393109
  C         9.3834360004        5.1870165855        9.5739438592
  C         8.5434756058        4.3763349115       11.6052424950
  C         9.8970078221        4.8392329574        8.3291262802
  C        10.5221356670        2.8748937728        7.3326181719
  H        10.6637531184        1.7446789262       11.3571708113
  H        11.1884065653        1.1724475579        9.7325814967
  C        12.1418218321        2.8915777096       10.4375856514
  S         8.8578330787        6.6106963564       10.3256331386
  C         8.2407504906        5.7140084065       11.6668902172
  H         8.4518691679        3.5826808572       12.3884755612
  C        10.1673194284        5.4726299518        7.1629389235
  H        10.6764708910        1.8334092323        7.3769955966
  C        10.7119081128        3.4556870356        6.1539634799
  H        11.9110564059        3.6991622185       11.0889321647
  H        12.3031599169        3.2772953030        9.4650877190
  C        13.4026401936        2.2426062551       11.0890744623
  C         7.7258215244        6.4346581608       12.9108832866
  C        10.6644560573        4.7966714217        6.0120548723
  H        10.1062409134        6.5544705247        7.0661334214
  C        11.0954327277        2.9984837123        4.8941765643
  H        14.1833089528        2.9504303499       10.9726711451
  H        13.4805248996        1.2953084489       10.5788629101
  C        13.3683816016        1.9297478433       12.5881876355
  C         7.7655094012        7.8276759523       13.1382303865
  C         7.3540949973        5.6941718717       14.1384041243
  C        10.9941711011        5.4312674884        4.7539933352
  C        11.2621080361        4.0438252003        4.0526749437
  S        11.4288631492        1.4639435867        4.1836791192
  H        12.7778458538        1.0596945937       12.7395707172
  H        14.3767892673        1.5140027706       12.7119037675
  C        13.2248735869        3.0367879521       13.6183728535
  N         8.0912701171        8.7984370114       12.1786451024
  C         7.4680284421        8.3676917309       14.3769977036
  C         6.9618183766        6.2765264935       15.3585808460
  H         7.1999886584        4.6073406821       14.0161757577
  C        12.3621004577        6.1654890199        5.0789448197
  C         9.9440864378        6.2436897686        3.9946393680
  C        11.4484465481        3.5959909069        2.7429095752
  C        11.7128956037        2.2648296961        2.6693860775
  H        13.2601959788        4.0007360326       13.1551814506
  H        14.1572006730        3.0836025247       14.1817515741
  C        12.1726838723        2.9723564709       14.7740012191
  S         7.8894116261       10.1842038982       12.8533951370
  N         7.6262287280        9.7803897326       14.3739531165
  C         7.0899261203        7.7193245510       15.5584672564
  H         6.6820079083        5.6117717137       16.1605911311
  H        12.1240880027        7.0269494976        5.6703977285
  H        12.6730053466        6.6910049056        4.1473979239
  C        13.4968568825        5.3175689390        5.6803462774
  H         9.5177456318        6.9627930342        4.7044772655
  H        10.4476562968        6.8909617726        3.2684777326
  C         8.6504683771        5.4940251377        3.4423039000
  H        11.3271013236        4.2569397859        1.9217752978
  C        12.0141590403        1.4967808477        1.3891056075
  H        12.1357708980        3.9967935866       15.1808900241
  H        11.1371847947        2.7836702025       14.4082719600
  C        12.4471854417        2.0072995512       15.8720473856
  C         6.9339359374        8.4766391701       16.8132321991
  H        13.1539675544        5.0637352849        6.6989114170
  H        13.5596311151        4.3900513078        5.0930634637
  C        14.7834751852        6.1252330056        5.9100344087
  H         8.3378522968        4.6485233339        4.0967587347
  H         8.8877017165        5.0004654521        2.5051725531
  C         7.4248781886        6.3558614255        3.0669003718
  C        12.0590997399        0.0692934229        1.2685708178
  C        12.3262119458        2.2359576022        0.2108824405
  H        12.8888166198        1.0680504458       15.4175224369
  H        11.4807056028        1.7047830782       16.1029008094
  C        13.0709794343        2.5318789964       17.1400031633
  H         7.0229885212        9.5453664235       16.7006608449
  C         6.6666158237        8.1502175292       18.1388098326
  H        14.4463266434        7.1054897432        6.3038627675
  H        15.1190712468        6.4349815001        4.8957698984
  C        15.8321276391        5.5079964415        6.7934862309
  H         7.0708689325        6.9102786348        3.9299078498
  H         7.8658821956        6.9822033420        2.2868832132
  C         6.2208328316        5.6008426883        2.5169510341
  N        11.7525580289       -0.8472432719        2.2799293956
  C        12.5098106699       -0.5543947892        0.1201858888
  C        12.6889076513        1.6186095557       -1.0196065734
  H        12.4870118509        3.3169971868        0.2512610893
  H        12.5007341931        3.3487334308       17.5417345345
  H        14.0841584665        2.9442580158       17.1098255743
  H        13.1371786333        1.7581871188       17.9141024948
  S         6.2189712102        6.5017698505       18.5533918578
  C         6.7722989848        9.1295698814       19.2240636229
  H        15.7753826811        6.0491704282        7.7233522179
  H        15.6498470744        4.4971733465        6.9575589617
  C        17.2080664552        5.6585992023        6.2838411619
  H         5.9395189278        4.8652034959        3.2784771529
  H         6.4750576251        5.1954906966        1.4592479474
  C         4.9496790176        6.4791422727        2.2937397557
  S        12.0180349885       -2.3942807089        1.7252086755
  N        12.5742430451       -1.9832453189        0.2615027414
  C        12.6849925144        0.0885877508       -1.1313956010
  H        12.9365515342        2.2655310966       -1.8269614039
  C         6.0276777244        7.2470897274       20.1596447987
  N         6.3342401025        8.5373986633       20.3015326217
  O         6.8822175073       10.3073998565       18.9404781563
  H        17.5199447177        5.2402706596        5.3474399495
  H        17.4760004740        6.7358415227        6.1848106795
  C        18.0705018205        5.0563835771        7.3684286213
  H         4.0249646774        5.9280176284        2.0390010246
  H         4.7690467899        7.1031810741        3.1928034042
  C         5.2287483094        7.4796798357        1.1194518242
  C        13.0345472156       -0.6760096621       -2.2670779937
  S         5.4745509475        6.3522649582       21.5663333264
  C         6.3484690395        9.3273629262       21.5157377493
  H        17.5721038086        4.9819996564        8.3214431870
  H        18.4083546171        4.0814648057        7.0970117121
  C        19.3098719657        5.8860500824        7.7379477471
  H         5.1940613520        6.8571027824        0.2276539356
  H         6.2473020834        7.9568150264        1.2581815061
  C         4.1935242935        8.5794461198        1.0942032652
  H        13.0037763665       -1.7729624164       -2.1665477963
  C        13.5705796681       -0.3331749610       -3.4819402250
  H         5.5605812384        9.0291126871       22.1891089184
  H         6.2362432777       10.3612899328       21.2991023305
  C         7.6850574588        9.1476039151       22.2683776751
  H        19.7690476178        5.3362008505        8.5508065716
  H        18.9931094930        6.8311329482        8.1377958015
  C        20.1461271192        6.1916064796        6.4771368323
  H         4.0003447459        8.8483235302        0.0541997426
  H         3.3144191621        8.1736451512        1.4837277344
  C         4.5374751092        9.9340241184        1.7844218381
  S        14.0647791379        1.2785969700       -3.9554080136
  C        13.6361251635       -1.3161623058       -4.5501545607
  H         7.5394227515        8.9091225904       23.2454792712
  H         8.2944130057       10.0567767623       22.0351185542
  H         8.1645912621        8.3605679222       21.6461130351
  H        19.7769506745        7.0817128239        5.9500915776
  H        21.1847105107        6.2506164635        6.8034083403
  H        20.0171663588        5.3634383586        5.7367394186
  H         4.9305624507        9.6761932775        2.7652275700
  H         5.4161147461       10.4536771857        1.3031492046
  H         3.7168528853       10.7090311827        1.7854675613
  C        14.5212463418        0.5706182128       -5.5003049370
  N        14.1639686328       -0.7128593472       -5.6149549424
  O        13.1153773463       -2.4338346478       -4.4796102631
  S        14.9348593880        1.5577390172       -6.9037446409
  C        14.2790378810       -1.3797060523       -6.8720562958
  H        14.2056256821       -2.4800276886       -6.7335561003
  H        15.2566058955       -1.1749049155       -7.2873715885
  C        13.1914671934       -1.0093046992       -7.9269773364
  H        13.0399122842       -1.8411505389       -8.5720954351
  H        13.5244130565       -0.2962473466       -8.6765110687
  H        12.2627098619       -0.6102004964       -7.5116462357
  H        -3.6459575098       14.8207353765       16.8309100314
  C        -2.9297625102       13.9458991791       16.9051688267
  H        -3.4762754940       13.2615899841       17.4405487302
  C        -1.6170256111       14.1781951247       17.6195017799
  C        -2.6622251891       13.4446535828       15.4934416745
  C        -1.7249008100       14.3669657626       19.1086601148
  H        -0.9286659671       13.3887404345       17.4057287246
  H        -1.3008801002       15.2016629474       17.2929581488
  H        -2.2778697633       14.2461016440       14.8441004978
  H        -1.9670833811       12.6312298322       15.5164907726
  H        -3.5770273963       13.0235445226       15.1085788600
  C        -1.7559765383       13.1306953242       19.9286945710
  H        -2.5677480475       15.0115360183       19.2000455417
  H        -0.8313695631       14.8652791378       19.4430299732
  C        -2.2007942832       13.3019252066       21.4074851319
  H        -2.3137924819       12.4647741570       19.3455005433
  H        -0.7779166338       12.6765508088       19.8555912844
  C        -1.1371476224       12.9094882496       22.3249780523
  H        -3.0951947382       12.7594971200       21.6251482215
  H        -2.4714901618       14.3627536322       21.5557781409
  C         0.0531817898       13.8423470344       22.4255850496
  H        -1.5720264188       12.7884668064       23.3279264455
  H        -0.8071791221       11.8481014380       22.0707618935
  C         1.2782175553       13.1532609088       23.0953041445
  H         0.4159694801       14.1708865927       21.4299787956
  H        -0.3204036840       14.6495314716       23.0022229474
  C         1.6499434436       11.7599105451       22.4875602665
  C         0.9236126079       12.4783295900       24.3993249356
  C         2.4581509966       14.0706754511       23.3120876776
  C         1.4938792840       10.6603044507       23.3087548850
  C         2.0344928510       11.3043090882       21.2051712458
  C         0.9905283465       11.1207775339       24.5317272456
  C         0.4925684856       13.0967211080       25.5346452627
  H         2.6784540372       14.6781666899       22.4147809608
  H         2.1402377078       14.7308358546       24.0996685592
  C         3.7585087461       13.3483412906       23.7602913289
  S         1.9459561214        9.2078599758       22.6199503592
  C         2.1971971037        9.9781253587       21.1322756863
  H         2.0704942877       12.0926569686       20.4213993306
  C         0.5203630125       10.5296943675       25.7028288799
  H         0.3780863696       14.1673189278       25.5268971643
  C         0.1332296622       12.5268920761       26.7464050263
  H         4.1210275859       12.7997981486       22.9038775953
  H         3.6227633510       12.6707234746       24.5788231110
  C         4.8373822956       14.3678487436       24.2206881316
  C         2.7430917476        9.2962806068       19.9337596282
  C         0.1212397596       11.1546115384       26.8782019541
  H         0.5721073853        9.4841837347       25.7699254603
  C        -0.3869803940       12.9542176062       27.9275150099
  H         5.3957640707       13.8855116058       25.0442564295
  H         4.3081206404       15.2166020785       24.6730075525
  C         5.6602432941       14.9546773278       23.0857612604
  C         2.6174079962        7.8791202893       19.6241118396
  C         3.2574275055       10.1349904025       18.7718668156
  C        -0.3829639140       10.5607706945       28.1367768615
  C        -0.7020356187       11.8986746084       28.7291110342
  S        -0.7659668581       14.5049817276       28.5761408820
  H         6.1913452869       15.7965159535       23.4693218787
  H         5.0902021327       15.4208998396       22.2454802207
  C         6.5856858697       14.0698515377       22.2990775399
  N         2.2280887853        6.9252684256       20.5701055514
  C         3.0127536055        7.3416952636       18.4074991358
  C         3.6177148691        9.5921397740       17.5243301197
  H         3.5074691552       11.1510425952       18.8419514707
  C         0.6893457769        9.8239854884       28.8844049930
  C        -1.6841709269        9.7194753065       28.0508169664
  C        -1.1179964642       12.3075874030       29.9581391131
  C        -1.2309986909       13.7238354501       30.0617126795
  H         7.5480440567       14.4920716786       22.5245495342
  H         6.5222729864       13.0360665943       22.6702947670
  C         6.2698107648       14.0350113658       20.8931301993
  S         2.2432588806        5.5230616940       19.7629153471
  N         2.8663080146        5.9434293163       18.3311960094
  C         3.4455095186        8.0853590539       17.3304743891
  H         3.9842975561       10.2867149369       16.7478870784
  H         1.1382129957        9.0478817639       28.1973046827
  H         0.1438901261        9.1552318925       29.5625585159
  C         1.7617094162       10.6112253893       29.6359167197
  H        -1.6194298389        8.8991511900       27.4042220269
  H        -1.9397292385        9.3467461293       29.0328748829
  C        -2.8552069833       10.5626585470       27.4518211434
  H        -1.3758328200       11.6381545443       30.7503779673
  C        -1.4140497978       14.4541509042       31.3301147218
  H         6.2980286883       15.0091705179       20.4945468733
  H         5.3072351360       13.6033526096       20.6796425049
  C         7.3338637579       13.2532140622       20.2404366996
  C         3.5492611671        7.3924300992       16.1137674796
  H         2.1527849281       11.2792603923       28.8909194176
  H         1.3563565515       11.2356323395       30.3586244640
  C         2.8365389397        9.7577952644       30.3371006745
  H        -2.6140454014       10.9486572603       26.4380547580
  H        -3.0741124654       11.4397560597       28.1142282222
  C        -4.1044128892        9.6420224826       27.4243474593
  C        -1.6023566939       15.8697924235       31.4516951434
  C        -1.6592143673       13.6357564855       32.5969572153
  H         8.3271350598       13.4413457319       20.6482788975
  H         7.0582047717       12.2168746477       20.4003587098
  C         7.2886977748       13.5212718413       18.7319408596
  H         3.3504127229        6.3126000086       16.1256650517
  C         3.7585691273        7.8481426853       14.8460268229
  H         3.1413375407        8.8515206274       29.7582838710
  H         2.4900396387        9.3653676353       31.2381139065
  C         4.0979165901       10.5765320337       30.6137714827
  H        -3.8918062834        8.9750717312       26.6150047558
  H        -4.2982145406        9.0559247156       28.3367724320
  C        -5.4377592212       10.4327956827       27.0825603008
  N        -1.5093210078       16.7755562875       30.4314017965
  C        -1.8326444048       16.4738234396       32.6783764181
  C        -2.0735611670       14.2777028585       33.8043682447
  H        -1.6286731239       12.5503151956       32.6064501213
  H         6.4187920055       13.1031719616       18.2250129267
  H         7.2981315308       14.6537091641       18.5021940819
  H         8.2349636399       13.1649564159       18.1853733823
  S         4.1158388608        9.4304594351       14.3158698598
  C         3.8361495404        6.7968455092       13.7927362507
  H         4.0478068208       11.5069910771       30.0379544252
  H         4.2627554766       10.9059336040       31.6466727721
  C         5.4083090637        9.8786581965       30.2761127287
  H        -5.0787715226       11.4120938210       26.6567851253
  H        -5.9064302516       10.7479216293       27.9993638542
  C        -6.4126540633        9.8115036918       26.0849138667
  S        -1.6460507507       18.3188374357       31.0542231652
  N        -2.0099986500       17.8492918016       32.5466148561
  C        -2.1109054749       15.7186264033       33.8772568711
  H        -2.2352782473       13.6289634448       34.6567513562
  C         4.4655160057        8.6856830763       12.7619917820
  N         4.2516435244        7.3705969733       12.6614893370
  O         3.6651824846        5.5808374886       13.9553725177
  H         6.1819121180       10.6742295243       30.3012375672
  H         5.3077483343        9.5705935373       29.3038053329
  C         5.7452425264        8.7160624940       31.1749188940
  H        -5.9639661601        9.5732855655       25.1733882067
  H        -6.8894832763        8.9777069028       26.5662657676
  C        -7.4480997659       10.8512900969       25.6384559350
  C        -2.4964471557       16.5000740274       35.0600256035
  S         4.6984382416        9.6142295095       11.3184636905
  C         4.3978409019        6.6052823176       11.4352516394
  H         6.7259088109        8.9554361201       31.4782650410
  H         4.9727215082        8.5935119899       31.9501474998
  C         5.6528261097        7.3618420527       30.5025739706
  H        -6.8775144225       11.5669536931       25.0603808370
  H        -7.9379762992       11.4044356372       26.4915598180
  C        -8.5801495263       10.1440346798       24.7507436114
  H        -2.7323449352       17.5524827306       34.8780931273
  C        -2.8482870569       16.1903756670       36.3450740232
  H         5.0530848104        7.0219369894       10.6527251860
  H         4.7258300775        5.5502942828       11.6396316492
  C         2.9725112538        6.5523080322       10.8860117676
  H         5.1381831112        7.4572741290       29.5173637714
  H         5.0803587708        6.6472720972       31.0562169046
  C         7.0644363391        6.8614541397       30.2292043975
  H        -8.7940556400       10.8633171097       23.9213152055
  H        -8.0791040152        9.2872052705       24.1813812213
  C        -9.8039343393        9.6742283443       25.5698620132
  S        -3.0015916484       14.6192572711       36.9866968584
  C        -3.1664729298       17.2564090895       37.2866369887
  H         3.0374442758        6.4237677882        9.7875826329
  H         2.5086831572        5.6656345157       11.3331019327
  H         2.3596299195        7.4546754934       11.1774676359
  H         7.0408932326        6.3254992040       29.2540660365
  H         7.3276147253        6.1294755656       31.0368308486
  H         7.8232703940        7.5691934684       30.3552984830
  H       -10.1834091500       10.3752523572       26.3185196464
  H        -9.6573113685        8.7533340829       26.0953027307
  H       -10.5656310627        9.4226968076       24.8383724201
  C        -3.5606935978       15.3875497499       38.4978706204
  N        -3.5674039249       16.7418941009       38.4472692084
  O        -3.0107111817       18.5028346125       37.1734813783
  S        -3.9406737183       14.6149324038       40.0017825925
  C        -3.8962890360       17.5532138918       39.5907869709
  H        -4.1502468512       18.5623302380       39.2890346177
  H        -4.7684122030       17.2337746889       40.0840442176
  C        -2.8261920619       17.5971410576       40.5950132201
  H        -2.6314091763       18.6372905396       40.9118333831
  H        -3.2090713012       16.9635603375       41.3558278181
  H        -1.9266433423       17.1456013722       40.1134112623
