352
i=
  H         3.2171333009        1.1657065766       13.7476308552
  C         3.8305170374        1.5274979586       12.8967451818
  H         4.1107533340        0.6484806992       12.4075188468
  C         3.0410297274        2.4455590872       11.9990441432
  C         5.0176703397        2.2177895120       13.5539366331
  C         3.7744175429        2.7908201892       10.6721507081
  H         2.8352832605        3.4403208394       12.4092800213
  H         2.0519286459        1.9882666912       11.7398910393
  H         5.9227626816        2.0938105663       12.9669670511
  H         5.0841575014        1.6244072689       14.3639041381
  H         4.8926444829        3.2701439060       13.8879700284
  C         4.2929985718        1.5780906786        9.8869121199
  H         3.0080798971        3.3586729261       10.1481216575
  H         4.5746351480        3.3524390924       11.0237237392
  C         4.9591781290        1.7816284570        8.5337410903
  H         3.5820646341        0.8640400517        9.9140319772
  H         5.0776280640        1.2813466922       10.6145939140
  C         6.3582491656        2.5674499606        8.6566411234
  H         4.3362051639        2.3749001025        7.8289575993
  H         5.2200354787        0.9465235242        8.0292995776
  C         7.5858975028        1.7056079290        9.1484334333
  H         6.5133931852        2.9431769748        7.6306941855
  H         6.1570962248        3.4078726522        9.3036163412
  C         8.9034830823        2.5990037132        9.3545312832
  H         7.7989459380        0.9466730983        8.4367219724
  H         7.3319742675        1.4078293936       10.1671199844
  C         8.6353871045        3.9030103463       10.0902271727
  C         9.4271245240        3.3255416039        8.1887054951
  C         9.9693715870        1.9364838274       10.2284111091
  C         8.7617224426        5.0239500683        9.2456441598
  C         8.1797760377        4.2766431252       11.3188009862
  C         9.2787586644        4.6330856996        8.0207813997
  C         9.9476429696        2.7323011432        7.0324254714
  H         9.6302819142        1.6861790201       11.2185760927
  H        10.0921461805        0.9930030107        9.6462534194
  C        11.3561958929        2.6802754654       10.4726472317
  S         8.2411407274        6.5071422080        9.9310634553
  C         7.9194951550        5.5964619184       11.3904387771
  H         7.9100335417        3.4923097075       12.0075244420
  C         9.5347965920        5.2261358552        6.8549338540
  H        10.1601293115        1.6404140798        7.1628468582
  C        10.2882628238        3.3076528797        5.8561041091
  H        11.2025458852        3.6851596915       10.8738250905
  H        11.9083747146        2.6284630506        9.5615095999
  C        12.1783490470        1.9044670740       11.4773310559
  C         7.4822311923        6.3346263309       12.5597476564
  C        10.1069964427        4.6690492261        5.6711450362
  H         9.4579651098        6.3190572770        6.7438593480
  C        10.7653259258        2.8837644171        4.6259966567
  H        13.1758574336        2.2300872077       11.2908686924
  H        11.9197340796        0.8203296307       11.3873663487
  C        11.7267798200        2.3264622784       12.9423324629
  C         7.6108525205        7.7216537867       12.8541230510
  C         7.1137564129        5.5169731882       13.7378997717
  C        10.5301444529        5.3172584394        4.3802872665
  C        10.8199719364        3.9279509078        3.7307973259
  S        11.0787086916        1.3221361002        3.9161890897
  H        11.9066581765        3.3620688436       13.1589965835
  H        10.6437495453        2.1231714692       13.0297945650
  C        12.5129935483        1.6129748759       14.0072653672
  N         7.9948226300        8.7350059100       11.9748691144
  C         7.2621668274        8.2018684243       14.0938388813
  C         6.7501268690        6.0405988386       15.0058077523
  H         7.0314848513        4.5192551791       13.6070625918
  C        11.7480139393        6.1034774144        4.7839717753
  C         9.5481081890        6.2422678973        3.5410903258
  C        11.2144507336        3.4228570322        2.4466522815
  C        11.3885618522        2.0653335554        2.4122539433
  H        13.6061028265        1.6092509777       13.7743968977
  H        12.2053604007        0.5874957087       14.0484867673
  C        12.2135675547        2.0140426156       15.4363873649
  S         7.9223199118       10.1794882608       12.7098593501
  N         7.5292916603        9.5863045016       14.2213150107
  C         6.8733501805        7.4809508550       15.2128272795
  H         6.4954761220        5.3941660636       15.8020465090
  H        11.4267430366        6.9790456822        5.4167927549
  H        12.1820775875        6.5498463445        3.8881694651
  C        12.9067873698        5.3786848504        5.4542890429
  H         9.3297391561        7.1992528832        4.0217924256
  H        10.0274502024        6.3534251658        2.5441611738
  C         8.1066660235        5.7633172507        3.4962328792
  H        11.2209321514        4.0884471571        1.6160311119
  C        11.5880074116        1.2693752852        1.1453690712
  H        12.1676433657        3.1006810846       15.5692127814
  H        11.1551558154        1.7008065352       15.6478207710
  C        13.2717525880        1.3554421372       16.3902974390
  C         6.5922723151        8.1571121873       16.4563621936
  H        12.7506940835        4.9733571108        6.4226615434
  H        13.1569468287        4.5886824922        4.8038204111
  C        14.1175131674        6.2633806372        5.7352825546
  H         7.5992596149        6.2517166010        4.3898266754
  H         8.0138774506        4.7160494369        3.6115257159
  C         7.4457543968        6.1820326798        2.1835837518
  C        11.5375453250       -0.1508352317        1.0281452312
  C        12.0038197973        1.9045486802       -0.1136252964
  H        14.2090183865        1.8291864604       16.1956579166
  H        13.4674847729        0.2551031919       16.2382329890
  C        12.9311448612        1.5897711203       17.9077000475
  H         6.5518676889        9.1789150452       16.3083191200
  C         6.3870153775        7.7807448926       17.7366140941
  H        13.6506727462        7.1255016545        6.2558988205
  H        14.4917708618        6.6466936885        4.7892588672
  C        15.2166301969        5.5692250296        6.5232965161
  H         7.4581127030        7.2348744398        1.8676752168
  H         7.8559736625        5.7497293503        1.3011804426
  C         5.9846694083        5.7405943749        2.1990326992
  N        11.2381586353       -1.0181377179        2.0714124740
  C        11.9945384926       -0.8130550869       -0.1641624770
  C        12.3628343106        1.2669118929       -1.2522341965
  H        12.0966643338        2.9829007677       -0.0697397702
  H        13.4903205340        2.4161498246       18.2900788815
  H        13.2411787207        0.7075571096       18.5187148539
  H        11.8842993767        1.7600160301       17.8965986019
  S         6.1125826411        6.1882912451       18.3982307826
  C         6.3934072974        8.8021680780       18.8033429181
  H        15.5482826487        6.2619175885        7.3446539450
  H        14.7628999993        4.8002776380        7.1508514477
  C        16.3600262942        5.0672568162        5.6489060394
  H         5.5157855386        5.5036893602        3.1386345723
  H         5.8942976657        4.7685140508        1.6813614791
  C         5.0340936300        6.8005256788        1.5880700767
  S        11.2335611327       -2.5405591263        1.4773318956
  N        11.8642051511       -2.1826812754        0.0484461789
  C        12.3874540564       -0.1880392339       -1.3499986030
  H        12.5727081517        1.8875382412       -2.0631957396
  C         5.8695409074        6.9539826680       19.9639191947
  N         6.0543211908        8.3082441222       19.9932408170
  O         6.6912648804        9.9755851142       18.4991125460
  H        15.9165866089        4.2706012146        4.9718048477
  H        16.8030264357        5.8774887740        5.1096424152
  C        17.5817736156        4.4254015399        6.4675262738
  H         5.6372187005        7.0622054796        0.7165548373
  H         4.0724931324        6.3331437107        1.3362820841
  C         4.9349863402        8.1063547690        2.3899848826
  C        12.6382701272       -0.9649608864       -2.4903339412
  S         5.5989742603        6.0631131681       21.4444290750
  C         6.0547995227        9.1600935270       21.1381509738
  H        17.0982398687        3.6970510402        7.1491379912
  H        18.2485523370        3.8627374823        5.7356581868
  C        18.4543296532        5.4289951580        7.2319384802
  H         5.5638157135        8.8134687247        1.9773627017
  H         4.8904020607        7.8955674015        3.4853839528
  C         3.5402364407        8.7775992496        2.1914151952
  H        12.5339170089       -1.9618660706       -2.2888726338
  C        13.1511933082       -0.6728738372       -3.7233771340
  H         5.3722449530        8.7949718653       21.9450961537
  H         5.6615582012       10.1561900119       20.8856778442
  C         7.4442517590        9.1929044371       21.7691678254
  H        18.7720531455        4.9726452608        8.1773737649
  H        17.9579301394        6.3030029931        7.4973367578
  C        19.6954039492        5.8107001038        6.3357894628
  H         2.8359992468        8.0192612426        2.2869155240
  H         3.4085406710        9.3502808687        3.0920355951
  C         3.3436644974        9.5299829437        0.8936653806
  S        13.8494453088        0.7494389465       -4.2040455210
  C        13.1049924594       -1.8529390317       -4.6537743070
  H         7.3854861969        8.8490770012       22.8194694653
  H         7.7606894883       10.2025935463       21.9110849834
  H         8.2033486561        8.6957909322       21.1891746212
  H        20.0450039607        4.8682629232        6.0193534398
  H        19.6016500770        6.5010199607        5.4816597643
  H        20.4495108570        6.2010411611        7.1002115570
  H         2.4032691028       10.1370430126        0.9201353362
  H         4.2023872947       10.1789540492        0.6296389696
  H         3.3566750205        8.7552253855        0.1345370298
  C        13.9089184133       -0.0796982948       -5.8269413858
  N        13.6152272708       -1.3979636655       -5.8111475855
  O        12.8598258048       -3.0460071949       -4.4009074760
  S        14.3817875480        0.7539779916       -7.3721277075
  C        13.5178720241       -2.2755475132       -6.9667051167
  H        13.4412479488       -3.3261795160       -6.6570350355
  H        14.3633315081       -2.2586286421       -7.7084912866
  C        12.2567960742       -1.9066202274       -7.7308741850
  H        12.3957900525       -1.0779349057       -8.3639024890
  H        11.3528597985       -1.7161965125       -7.2201521660
  H        11.9659591680       -2.6941202334       -8.3559216358
  H        -3.0062615818       15.0185041687       15.9294008023
  C        -3.2063072846       14.0277706766       16.3663743975
  H        -4.2354130099       14.0177213692       16.6711136119
  C        -2.1659664955       13.7477232787       17.4456229806
  C        -3.1582066566       13.0516211281       15.2026508964
  C        -2.7920653583       13.2476060400       18.6806820580
  H        -1.4067944184       13.0934903007       17.1845343849
  H        -1.5053274940       14.6445166373       17.5870909914
  H        -3.3908286224       12.0151576610       15.4218063410
  H        -3.9245527684       13.3008888524       14.5162270291
  H        -2.1715845496       12.9448368600       14.7026961650
  C        -1.7832056111       12.9388982887       19.7325412846
  H        -3.4273532031       12.3861480910       18.5864548250
  H        -3.4402399411       14.0467240799       19.0097723311
  C        -2.3592597626       13.0003924246       21.1720046678
  H        -1.3363769987       11.9694134146       19.5614093373
  H        -1.0039136214       13.6763777074       19.6971583745
  C        -1.3226144113       12.4704427216       22.2131320443
  H        -3.2638649903       12.4507352678       21.3739762914
  H        -2.5711040372       13.9992433816       21.3458608967
  C        -0.1016661242       13.4123162380       22.4625577786
  H        -1.8489131935       12.2811785266       23.1785050157
  H        -0.9467836178       11.5408132166       22.0531332529
  C         1.0076403377       12.8061242364       23.3771823598
  H         0.2916997411       13.7760011091       21.5226703735
  H        -0.4314794589       14.2396891413       23.0729552522
  C         1.4210492644       11.4962473111       22.7261063785
  C         0.5299954906       12.0344999852       24.5885416429
  C         2.2397354135       13.7175682701       23.5425535306
  C         1.1775439737       10.3633314255       23.4804562529
  C         1.7998791884       11.0710631606       21.4356639209
  C         0.7574112092       10.7040449011       24.7239894420
  C         0.1364555614       12.6954121869       25.7891400972
  H         2.4205772194       14.3510101022       22.6347442411
  H         1.9952341443       14.3097186615       24.3968652826
  C         3.5546940601       12.9763846228       23.9245678500
  S         1.6363528370        8.8325261219       22.7252969791
  C         1.9988473108        9.7092606393       21.2764562153
  H         2.0661706671       11.8908561745       20.7641591045
  C         0.4124891472       10.0740725241       25.8465488527
  H         0.2043993075       13.7427932191       25.7335005573
  C        -0.1838470116       12.0182265906       26.8805469439
  H         3.8626467298       12.3161450467       23.1516308991
  H         3.5399884927       12.4458900903       24.8827852995
  C         4.7213671460       13.9710430387       24.2415542787
  C         2.4731342605        9.0467421893       20.0121682277
  C        -0.1147519596       10.6892879112       26.9990944011
  H         0.4292514589        8.9666948465       25.9414815309
  C        -0.5373634490       12.4041578117       28.1486210202
  H         5.6333230125       13.4084711861       24.6075423478
  H         4.4451462728       14.6840544490       25.0206775712
  C         5.2808494573       14.7846764096       23.1034343441
  C         2.5705100456        7.6627298947       19.7104193842
  C         3.0325482528        9.9150264051       18.9374197900
  C        -0.5629137322       10.0058965211       28.2268994192
  C        -0.7737789078       11.2992055545       28.9480737975
  S        -0.8470140515       13.9358344723       28.9553355802
  H         5.9154496713       15.5675925968       23.5168818040
  H         4.4535596081       15.3914299536       22.6063482037
  C         6.0788359375       13.9840880457       22.1482961956
  N         2.3779102892        6.5927413411       20.5735757936
  C         2.8140386491        7.2384775213       18.3970957182
  C         3.2195559413        9.4324707061       17.6714168658
  H         3.1673562619       10.9986803472       19.1843335476
  C         0.6425699703        9.3283154703       28.9858677293
  C        -1.8889639079        9.2034394709       28.1619940709
  C        -1.0966454824       11.6777751235       30.2432140589
  C        -1.1975187901       13.0388963304       30.4022123519
  H         7.1158727719       14.4929288401       22.1644979358
  H         6.1722275398       12.9873769062       22.5060546134
  C         5.3662103598       13.8429919858       20.8264108367
  S         2.5450231940        5.1880527834       19.7197196576
  N         2.7817787531        5.8315122399       18.2616935093
  C         3.0169125875        8.0601613099       17.2839093036
  H         3.5802324661       10.0287272322       16.8778326085
  H         1.1485035995        8.6475190649       28.2850396106
  H         0.2859728870        8.7713676295       29.8410806946
  C         1.8958269974       10.1363486180       29.4021104546
  H        -1.7298484927        8.3542725049       27.4943970959
  H        -2.0276512467        8.6961302687       29.0806073683
  C        -3.2271595524        9.8854025016       27.9479362648
  H        -1.2896836912       10.8950720147       30.9425332470
  C        -1.5975782036       13.7386353150       31.6581553410
  H         4.8661116027       14.7698897184       20.5660527624
  H         4.4895934273       13.1439715840       20.9946131941
  C         6.2148213875       13.5420210852       19.5168696361
  C         3.2684462314        7.4223831368       15.9836571119
  H         2.1564647030       10.7627655773       28.6192527577
  H         1.5500816289       10.7301364906       30.2347839765
  C         3.1440200788        9.3615512689       29.7898415479
  H        -3.1061587299       10.5558331116       27.0997220211
  H        -3.4395802059       10.4894122392       28.8183406674
  C        -4.3183559610        8.8425799110       27.6598757743
  C        -1.5529934085       15.1387205588       31.8836384256
  C        -1.8707874335       12.8832705160       32.8758344723
  H         6.6033311264       14.4905154767       19.1638291822
  H         7.1266189321       12.9970642051       19.7796440287
  C         5.3860930483       12.7378684017       18.4936355357
  H         3.0889474965        6.3916435244       16.0151152625
  C         3.5176492460        7.8548102520       14.7479594569
  H         3.4120340606        8.9197786299       28.8390029029
  H         2.8721629438        8.4964715488       30.2983110701
  C         4.0949418220       10.1375449747       30.6786690033
  H        -4.1702143736        8.1650099204       26.8305773151
  H        -4.5418792029        8.2256777851       28.5171479129
  C        -5.7112079281        9.5100141722       27.4667513919
  N        -1.4851470235       16.1038005111       30.9308737188
  C        -1.7035539735       15.6647117521       33.1583078733
  C        -2.1728006518       13.4850079309       34.0793086500
  H        -2.1587727930       11.8820785862       32.6803574865
  H         5.9262303260       12.4391743655       17.6426952149
  H         5.1001404646       11.7716204294       18.9570216638
  H         4.4126613788       13.1732460686       18.2130166575
  S         3.8116064474        9.4557173061       14.1927928521
  C         3.7331136909        6.8414633377       13.6570134368
  H         4.0415474613       11.1217829035       30.2576688464
  H         3.6766011123       10.1776524244       31.6839638433
  C         5.5516670588        9.5525615389       30.8305047063
  H        -5.8136151132       10.4842254706       27.9781320363
  H        -6.3777380935        8.7938085154       27.8762730533
  C        -5.9942491082        9.7127163196       25.9653702646
  S        -1.3744268544       17.5795395128       31.6603202153
  N        -1.6107888136       17.0542194932       33.1653869832
  C        -2.0346012659       14.9206191055       34.2958391451
  H        -2.3492623030       12.8158539873       34.9325856755
  C         4.1560454526        8.7708795096       12.6128960631
  N         4.0994965596        7.4310893216       12.5367429541
  O         3.5737121220        5.6094119919       13.8499164275
  H         6.3412175467       10.2413333211       31.0645903327
  H         5.7883008312        9.2361433118       29.7790968944
  C         5.4475199774        8.2863961384       31.6366440206
  H        -5.2369170736       10.3172513054       25.4814611226
  H        -5.9759758969        8.6578684315       25.5552957857
  C        -7.4176973716       10.2733050384       25.7724671987
  C        -2.0829473564       15.5954715492       35.5530409443
  S         4.7362547860        9.7399841019       11.2362529108
  C         4.1194856167        6.6925187935       11.3173052480
  H         5.8612375364        8.5577533996       32.6117571755
  H         4.4063342241        8.0078473681       31.7573589627
  C         6.1235268142        7.0176576157       31.0843563482
  H        -7.3861344282       10.6313648397       24.6859754229
  H        -7.6775222293       11.1028598755       26.3935993794
  C        -8.4709768894        9.1931866518       25.8634306264
  H        -1.8627260209       16.6705438929       35.4789405781
  C        -2.5239285880       15.2358193302       36.8159251278
  H         4.7755353981        7.1097777678       10.5314750093
  H         4.5820052541        5.7358799749       11.6323349980
  C         2.7124566785        6.5317819752       10.7158245112
  H         7.0251929775        7.2266623810       30.5699058031
  H         5.5401885707        6.4775410865       30.3257533025
  C         6.6394546285        6.0792576352       32.2142823121
  H        -8.4374270805        8.5063417139       25.0505724839
  H        -8.3693831627        8.6896746422       26.8158607030
  C        -9.8629945528        9.8269989407       25.8646324207
  S        -3.0154933900       13.6528211246       37.2918040774
  C        -2.7223989785       16.2754637332       37.8529778616
  H         2.6192836048        6.3061012095        9.6272266019
  H         2.1857825958        5.7230644682       11.2273278253
  H         2.1196716553        7.4208833705       10.8696312419
  H         7.3614836892        6.5801078149       32.8978385333
  H         7.0189073106        5.0960099524       31.8553802951
  H         5.8031695946        5.8876290950       32.9007100631
  H        -9.9660842704       10.4287402617       24.9420689327
  H        -9.9886070607       10.4053162525       26.7222058273
  H       -10.6810378435        9.1185859598       25.8796611183
  C        -3.5254319018       14.3823945262       38.8514883190
  N        -3.3123103661       15.7660278084       38.8978560970
  O        -2.3642103511       17.4475606597       37.7195426602
  S        -4.4421589392       13.5083301307       40.1551947047
  C        -3.6657681084       16.6219855321       40.0537778472
  H        -3.7536750766       17.6025254250       39.8018640693
  H        -4.6552105840       16.2164728653       40.3991760976
  C        -2.6697358322       16.5155026822       41.1994282062
  H        -1.9288830567       15.6971130826       41.0296671552
  H        -2.1364102654       17.4519744255       41.2920994417
  H        -3.2591544812       16.3156846728       42.0566201463
