352
i=
  H         5.0620859684        1.6325122928       13.0271033330
  C         4.4382478683        2.5033413125       13.0427315239
  H         5.0261301382        3.3284206196       13.3198958236
  C         3.6664691400        2.6851342485       11.6821273040
  C         3.4488091379        2.2546271693       14.1724155555
  C         4.6125949310        2.8753325618       10.5149179908
  H         2.9958637356        3.5638524100       11.8111209624
  H         2.9449462467        1.8591828201       11.5545441184
  H         2.8480673032        1.3952645015       13.8358260899
  H         2.8516540169        3.1196016023       14.4608966763
  H         3.8745883686        1.9337249760       15.1369836401
  C         5.0357801092        1.5900706002        9.7754369712
  H         4.0910563416        3.5055661335        9.7561675302
  H         5.4422552841        3.4889687224       10.7993016650
  C         5.9187484518        1.8210276315        8.5213088556
  H         4.1014185184        0.9886713795        9.5388778417
  H         5.7026255018        1.0222924762       10.3692794480
  C         7.0917488688        2.6886377243        8.6663556202
  H         5.2271819107        2.2817629962        7.8342181933
  H         6.2628489262        0.8468742100        8.1526923112
  C         8.3310568212        2.0441289028        9.2847130228
  H         7.4009940214        2.8001478094        7.5855854318
  H         6.8262931530        3.6447619444        9.0155283569
  C         9.5528936776        2.9649944204        9.4265786725
  H         8.6216216036        1.3294467991        8.5422388911
  H         8.2041182762        1.4497818682       10.1466022722
  C         9.1761918414        4.2693380712       10.1926967705
  C         9.9909857450        3.6794418694        8.2151359199
  C        10.7375106796        2.2900702394       10.0968577634
  C         9.5267717162        5.3892508408        9.4653719444
  C         8.6358236101        4.5987101296       11.4519023656
  C        10.0013812058        5.0371062347        8.2234048402
  C        10.4172921821        3.1087396911        7.0023043657
  H        10.3418956502        1.6589977311       10.8879045114
  H        11.1465516223        1.5187852913        9.4515003628
  C        11.8965256227        3.2764357088       10.4491242620
  S         9.1985588698        6.9191907626       10.2670329500
  C         8.6696682224        5.9549645065       11.6207515362
  H         8.2352806954        3.7968926271       12.0354186209
  C        10.4121012530        5.7236643791        7.1075489707
  H        10.4090173899        2.0351329883        6.9780995747
  C        10.7828116366        3.7929121556        5.8893124519
  H        11.6688947158        4.1812740745       10.9757051758
  H        12.2383384180        3.6795979632        9.5009041406
  C        13.1013977231        2.5259864506       11.1843972117
  C         8.1454923647        6.6514537385       12.8301098434
  C        10.7434851043        5.1603040111        5.8627635386
  H        10.4742951578        6.8077966966        7.1468563337
  C        11.1171297166        3.4115961640        4.6482789690
  H        14.0845858221        3.0784539387       11.1904615762
  H        13.3203604041        1.6444953940       10.6216353886
  C        12.7389568588        2.1116800630       12.5937974692
  C         8.1793296677        8.0134123980       13.0927137269
  C         7.6128973130        5.8242581721       13.9646119322
  C        11.2042559252        5.8979555317        4.5837275845
  C        11.3603802277        4.5506507121        3.8452204941
  S        11.1852647834        1.9165389157        3.9275886477
  H        11.6930405475        1.8405219494       12.8343245760
  H        13.4216094691        1.2567956145       12.8295773429
  C        13.0239310251        3.1023603094       13.6955444252
  N         8.7177427997        8.9968133408       12.2417097528
  C         7.6514360257        8.5539166932       14.2688275158
  C         7.1200365408        6.3874523837       15.1944837413
  H         7.5476329797        4.7669020208       13.8671979653
  C        12.4341278395        6.7636062164        4.8312990998
  C        10.0812060332        6.7920517960        3.8390041224
  C        11.7331055265        4.0811251391        2.5754762346
  C        11.6373610468        2.6845128524        2.4678338268
  H        13.0646399406        4.1481047012       13.3792637153
  H        13.9444757758        2.7370657100       14.2107251570
  C        11.9594653054        3.1035271137       14.8478690330
  S         8.4552050150       10.4799014155       12.8763645147
  N         7.6854685551        9.9896383813       14.2770634013
  C         7.1930326357        7.8801185549       15.3868984708
  H         6.7359476871        5.7282248244       15.9341843043
  H        12.1848296665        7.6700353728        5.3461393450
  H        12.7623563766        6.8756081480        3.7529414323
  C        13.4756663568        5.9860896745        5.5296284944
  H         9.9973706536        7.6217372444        4.5572818147
  H        10.3661905703        7.1908126009        2.8525253495
  C         8.6542234335        6.1756135420        3.6932201907
  H        12.0948727863        4.8489474607        1.8914423766
  C        12.0143818291        1.8864759855        1.2234773896
  H        12.1097024924        4.1574758272       15.1431548291
  H        10.9935677644        3.0908592384       14.4507115788
  C        12.2622721034        2.0574321793       15.9178282415
  C         6.9093810788        8.6116966329       16.5906749129
  H        13.1249815323        5.5287505595        6.4695413959
  H        13.8301366291        5.1536086695        4.9252409594
  C        14.7270108332        6.6999041406        5.9299813508
  H         8.0724059911        6.4172248476        4.6106894631
  H         8.5353265610        5.1070328592        3.5429939031
  C         7.9063901480        6.8481193648        2.5836834595
  C        12.1637931371        0.4913131136        1.2153450834
  C        12.1130341457        2.6030327904       -0.0369937003
  H        13.2808145204        1.5512910006       15.9461889330
  H        11.4907127523        1.3142572172       15.8687304270
  C        12.2759619971        2.6730768584       17.3090826131
  H         7.2166246163        9.6301233823       16.5791194273
  C         6.5371175160        8.2841664257       17.8990330590
  H        14.5935478324        7.6064425784        6.4384031255
  H        15.2819844776        7.1121455584        5.1073664177
  C        15.7094758225        5.7757613816        6.7064913510
  H         8.0399777080        7.9294797910        2.7536195346
  H         8.4194198691        6.5475653757        1.6184942440
  C         6.4741667044        6.4967592418        2.3992871655
  N        11.8761379622       -0.3374727356        2.2883297970
  C        12.4945068280       -0.1661741987        0.0605508362
  C        12.4103251583        1.8603823598       -1.2023728523
  H        11.9763510384        3.6780521300       -0.1159908002
  H        12.0184131589        3.7000961747       17.1722403145
  H        13.3105269985        2.7294910511       17.6059288160
  H        11.6203339750        2.2380668219       18.0562994999
  S         6.2470003853        6.6383641305       18.4904327574
  C         6.5578117082        9.3253633315       18.9351299503
  H        15.7728920931        6.2730171430        7.6541526037
  H        15.3276315506        4.8517895776        6.8395777539
  C        17.0121884865        5.6396696186        5.9417189701
  H         6.2109535984        5.4456579520        2.6578066409
  H         6.3081406747        6.5233853687        1.2766236624
  C         5.5981725017        7.5195034960        3.1810833056
  S        12.1500695369       -1.8644246747        1.8477318185
  N        12.6021486727       -1.5599502915        0.3272677874
  C        12.6044325490        0.4038010423       -1.1784609777
  H        12.3394786196        2.3186799295       -2.1623040056
  C         6.0450504817        7.4393181527       20.0640578022
  N         6.1286859608        8.7883384459       20.0641959068
  O         6.7413195943       10.5397379933       18.7544353078
  H        16.7767029528        4.9757006980        5.1203388141
  H        17.3737681752        6.5946682732        5.5387422526
  C        18.0840001172        4.8217962427        6.6138554852
  H         4.6403500245        7.2245059903        3.5732332631
  H         6.1683597673        7.8950666873        4.0233246784
  C         5.2962175552        8.7544749394        2.3356971516
  C        12.8029164721       -0.3777667044       -2.3619019137
  S         5.2679339500        6.7203519355       21.4185838092
  C         6.1338135661        9.6449082620       21.2099613721
  H        17.7407471968        3.9542273588        7.1203965385
  H        18.6713821730        4.4433459068        5.8553100939
  C        19.0374677328        5.6520586228        7.3915822064
  H         6.1893977806        9.0263188378        1.7866126583
  H         5.0208409295        9.5309043059        3.0653540218
  C         4.0868068203        8.5446154004        1.4191522530
  H        12.2866926495       -1.3601042834       -2.4420137139
  C        13.2700533147       -0.0532746277       -3.6483588096
  H         5.4448185373        9.2235925371       21.9599353976
  H         5.5949390659       10.5496572493       20.9438264095
  C         7.5397950372        9.8234720384       21.8503149169
  H        19.1835138095        5.0809822967        8.3439803394
  H        18.7409642134        6.6255077496        7.7440808574
  C        20.4437154610        5.7891569206        6.7097639468
  H         4.2927172914        7.7569639721        0.7250522002
  H         3.2885137376        8.1280744795        1.9642308366
  C         3.5630537901        9.8787066288        0.9162269758
  S        13.6686184199        1.5109380500       -4.2426816494
  C        13.4381578944       -1.1639236060       -4.5923328537
  H         7.7602589577        8.9269929839       22.4035824118
  H         7.6045295572       10.6703102133       22.5662887997
  H         8.3762259601       10.0819962393       21.0680834885
  H        20.3495247456        6.3700756862        5.7969204484
  H        21.1853336421        6.3006091762        7.3403113768
  H        20.8887022816        4.8299232910        6.3746452646
  H         2.6954820799        9.7036179714        0.3237120364
  H         3.2522075952       10.5800933050        1.6371836839
  H         4.2834209746       10.3714249321        0.2881174785
  C        14.0561576034        0.6734384519       -5.7309051685
  N        14.0252233003       -0.6561017320       -5.7073694370
  O        13.3570876659       -2.3524161776       -4.2219620962
  S        14.7793518721        1.4589581148       -7.1772792506
  C        14.0439129698       -1.4954272324       -6.9215712652
  H        14.0996240538       -2.4879698280       -6.5126607318
  H        14.9172695716       -1.3198639473       -7.5014262129
  C        12.6857965716       -1.3687008046       -7.6443410780
  H        12.1079273418       -0.9908168356       -6.8455185212
  H        12.4162907936       -2.3090103974       -8.0540473805
  H        12.7700410226       -0.6710166743       -8.5213624800
  H        -2.8792031399       15.0335785351       16.1518613123
  C        -2.5780214622       13.9663430446       16.2731058093
  H        -3.4481295871       13.4315721564       16.5021262770
  C        -1.5296064007       13.6905963583       17.3462031108
  C        -1.9330655550       13.4637890789       15.0391493379
  C        -2.0094752291       14.0176641880       18.7681116713
  H        -1.1956655380       12.6650304705       17.3166915744
  H        -0.6503668318       14.3083270664       17.0855974725
  H        -0.9152773414       13.8693221475       14.9524583362
  H        -1.8327834027       12.3720817459       15.1400739678
  H        -2.5662212222       13.6256108394       14.1096461815
  C        -1.6328582902       12.9026147108       19.7505887934
  H        -3.0658368560       14.1750741487       18.8125774702
  H        -1.6585573496       15.0212049597       18.9958690020
  C        -2.2514867625       13.1097645265       21.1191623894
  H        -1.8158614504       11.9474450912       19.3848004897
  H        -0.5680624049       13.0369229740       19.8142216711
  C        -1.3832735746       12.6377818263       22.3351532245
  H        -3.1519373290       12.5148359911       21.1227338320
  H        -2.5470009431       14.1849963870       21.2707537281
  C        -0.2083443653       13.6212537349       22.5601578283
  H        -2.0143346186       12.4922234296       23.1916533517
  H        -1.0394144875       11.6245759372       22.0525237229
  C         1.0877254670       13.0481270005       23.2218896623
  H         0.0706840422       13.9674254634       21.5881460624
  H        -0.5013569213       14.5016014159       23.0118480689
  C         1.4598607330       11.7682347131       22.5802463828
  C         0.7109788904       12.3691271391       24.4968702816
  C         2.2667194276       14.0188868616       23.1993847218
  C         1.3727205149       10.6764050152       23.4484111078
  C         2.0089879040       11.3574494454       21.3969408634
  C         0.8355817683       11.0430775818       24.6326166042
  C         0.2905428853       13.0934990810       25.6097316996
  H         2.3582937601       14.4052393771       22.1926916323
  H         2.0652885364       14.9257423828       23.7022773167
  C         3.4806537451       13.3610164950       23.7265216237
  S         1.9118108834        9.1304435752       22.7209460997
  C         2.1825882236       10.0029479851       21.3091120303
  H         2.2122264985       12.1558260232       20.6758076736
  C         0.3479522980       10.5322719871       25.7950965242
  H         0.2083963064       14.1525760031       25.5061943132
  C        -0.1259249265       12.5255956928       26.7624169973
  H         3.6125306816       12.4089839256       23.2401926469
  H         3.3390698346       13.0885691288       24.7610662844
  C         4.7710352950       14.2197446388       23.7743753478
  C         2.7060603336        9.3626939958       20.0449167541
  C        -0.1431710553       11.1706864524       26.9140236802
  H         0.2586393272        9.4187800479       25.8625651928
  C        -0.6174232329       12.9045384070       28.0201834684
  H         5.4834621962       13.6852265746       24.4405180097
  H         4.6214299439       15.0807485625       24.4088172076
  C         5.4669848784       14.5458496933       22.4467233223
  C         2.5716673441        7.9558847881       19.7614595592
  C         3.2512508118       10.1978674795       18.9034675941
  C        -0.7017570616       10.4966387268       28.1488793480
  C        -0.8738461359       11.8472647762       28.8575624642
  S        -0.8644300724       14.3824826795       28.8464916564
  H         6.2732603689       15.2025393043       22.6703039854
  H         4.6472868918       15.1390234058       21.9288699495
  C         5.9130036842       13.2840616178       21.7641714893
  N         2.1051432612        7.0549197381       20.6383084210
  C         2.7716129385        7.4829776521       18.4916708414
  C         3.5464003547        9.6001118747       17.6835312385
  H         3.5012778172       11.2356689112       19.0795067081
  C         0.3415954811        9.5068112119       28.8370818514
  C        -2.0156583597        9.7727645258       28.0294708736
  C        -1.2439374363       12.1978812111       30.1376881317
  C        -1.2099107485       13.5720498324       30.2775450569
  H         6.8705443752       12.9585548749       22.1081911553
  H         5.1850079973       12.4947045210       22.0180127865
  C         6.1053113696       13.3691078958       20.2828779026
  S         2.2670190151        5.6213315913       20.0135291225
  N         2.5573363430        6.0775521054       18.5107384985
  C         3.1646066458        8.2031808825       17.3538012242
  H         4.1508291110       10.1889232869       16.9927882357
  H         0.5737926581        8.7961755074       28.0410970673
  H         0.0262753398        8.9347685424       29.7021114252
  C         1.5792217882       10.2305098277       29.2839377342
  H        -1.9966397617        9.0177477406       27.3171482428
  H        -2.2428305634        9.2693291747       28.9514269426
  C        -3.2291302054       10.7073547559       27.8011354799
  H        -1.5090661429       11.4950099888       30.9592649856
  C        -1.5613715648       14.3712735435       31.5188315491
  H         5.4400286561       14.1489505261       19.8579450011
  H         5.7904157994       12.4322385379       19.9001342162
  C         7.5579172253       13.4173351455       19.9684907000
  C         3.5136426305        7.5812695963       16.0872034591
  H         1.8434707326       10.7218610990       28.3526962032
  H         1.3755120193       10.9598055075       30.0121159259
  C         2.7572104083        9.2793480191       29.6371580100
  H        -2.9654919076       11.4349673081       27.0523175654
  H        -3.4697745566       11.3988700991       28.6786437132
  C        -4.5169950828        9.9883383149       27.4036150780
  C        -1.7265925461       15.7692367423       31.6124103593
  C        -1.8121763190       13.6393006022       32.7668657055
  H         8.1133976417       14.1110633371       20.6199457963
  H         7.9840631401       12.3908578825       20.1995202973
  C         7.8078864408       13.7341596523       18.4798315635
  H         3.2084803124        6.5928097933       16.0271746880
  C         3.9535102365        8.0516222912       14.8858604758
  H         3.0529347839        8.6948600710       28.7561091475
  H         2.4313055738        8.5980082566       30.3464179319
  C         3.9377505506        9.9810725075       30.2523898679
  H        -4.4691002153        8.9395837544       27.2760728023
  H        -5.1072009155        9.9950341239       28.3499748573
  C        -5.2381405042       10.7873383131       26.3336482087
  N        -1.4571130426       16.6867892694       30.6695729463
  C        -1.9119072786       16.4296714922       32.8323489669
  C        -2.0566039281       14.2928358249       34.0003858115
  H        -1.5351423007       12.5990739930       32.7421553521
  H         6.9064824053       13.6409436705       17.9851933973
  H         8.1763208669       14.7948046276       18.3757467008
  H         8.5406222809       13.0000851268       18.0964025833
  S         4.3537470374        9.6321345990       14.3026558448
  C         4.1485586423        7.0056268197       13.8220448876
  H         4.2203500331       10.9527665084       29.7970750089
  H         3.6668848000       10.1729067290       31.2957208115
  C         5.2516244308        9.2765500361       30.4719987018
  H        -4.6458803759       10.8834680835       25.4199584767
  H        -5.4979150162       11.8021470003       26.5702691261
  C        -6.5660347892       10.1006937243       25.9737969109
  S        -1.6179444626       18.2377488689       31.1188201038
  N        -1.8551655916       17.8444501600       32.7029223521
  C        -2.2576303041       15.7515926704       34.0439939050
  H        -2.0393018456       13.7487538035       34.8620694458
  C         4.5826080742        8.8885588479       12.6675642026
  N         4.5089911091        7.5696076314       12.6377341529
  O         3.8356742028        5.7700438866       13.9096433895
  H         5.9054266620       10.1501469541       30.6192908995
  H         5.5027495563        8.8213055667       29.5851242064
  C         5.2084914423        8.3269154567       31.6265462397
  H        -6.3191766817        9.1335788413       25.7227067002
  H        -7.1815343559        9.9530961283       26.8184561631
  C        -7.2692656897       10.7820561072       24.7966723662
  C        -2.4124122326       16.5996406191       35.2041388838
  S         5.1997848577        9.6750251313       11.2217142577
  C         4.6711031998        6.7407379623       11.4137033293
  H         5.8939180816        8.6744775642       32.4045592401
  H         4.2337579655        8.1628621331       32.1681752509
  C         5.7850558286        6.9372669914       31.3534943361
  H        -6.7004468993       11.1135462942       23.9264962873
  H        -7.6349595965       11.8022114117       25.1679372794
  C        -8.5561561783       10.1086263969       24.3858916432
  H        -2.2818306691       17.5802285902       34.9426623014
  C        -2.9031167184       16.2484325670       36.4091043714
  H         5.5940160209        6.9423974638       10.7881669975
  H         4.9454660508        5.6553705721       11.6812790033
  C         3.4599061677        6.7342461945       10.4574426314
  H         5.3467230776        6.6536145603       30.3499221700
  H         5.4991265171        6.2140879070       32.1159333438
  C         7.3548587423        6.9309146334       31.2993660950
  H        -9.0717218482       10.7846466144       23.7747564543
  H        -8.4023367910        9.1532273745       23.8119626751
  C        -9.5191166345        9.7599666455       25.5411207740
  S        -3.6101567722       14.8057181115       36.9308558729
  C        -3.0110716047       17.4494436303       37.3371906005
  H         3.3509119104        5.8282523835        9.9136012180
  H         2.5482818286        6.9331949654       10.9635975432
  H         3.4933380709        7.4848352089        9.7074575696
  H         7.6508964615        5.9014403185       30.9458189594
  H         7.8269446265        7.2863004654       32.2154543194
  H         7.7194834752        7.5423288134       30.5314611083
  H        -9.5362905703       10.6082754549       26.2564809131
  H        -9.1347135991        8.9251927579       26.0556188845
  H       -10.6024681711        9.5864409039       25.3489525960
  C        -3.9849354440       15.7165868828       38.4445360339
  N        -3.6606381538       17.0443378837       38.4235034181
  O        -2.5608255285       18.5712425725       37.1304630981
  S        -4.8764121772       15.1382720759       39.8072069453
  C        -3.8196791980       17.9922836593       39.4617983329
  H        -3.7746212269       18.9973518524       38.9960596731
  H        -4.7608039291       17.8508330620       39.9671372175
  C        -2.6117871919       17.8586441198       40.4319348876
  H        -2.2221981019       18.8043893411       40.7784521544
  H        -2.9035057365       17.3787124256       41.3474548327
  H        -1.7833698637       17.2637564339       40.0008299171
