352
i=
  H         4.0339503593        1.1919504705       12.6822807952
  C         3.4362768522        2.0891415088       12.6688732573
  H         4.1363850455        2.9104753955       12.8905008359
  C         2.6992068750        2.2486700262       11.3422788091
  C         2.6078069151        2.2072249793       13.9248926458
  C         3.5559710763        2.4658821276       10.1199808535
  H         1.9482314697        3.0316529171       11.5038169027
  H         2.1801778245        1.3374827657       11.2184632027
  H         1.5802441788        1.8982912451       13.7337453708
  H         2.5064755620        3.2463733581       14.3576308417
  H         3.0152731861        1.6297277974       14.6856670893
  C         4.3536300252        1.1577804400        9.7648129621
  H         2.8918561167        2.6317989406        9.2500268810
  H         4.2442666090        3.3233413152       10.3142931595
  C         5.1956536727        1.5082995698        8.5566579097
  H         3.6029766701        0.3648435375        9.5015322525
  H         4.9789023407        0.8218963203       10.5533335568
  C         6.4314623289        2.3113143792        8.6983636782
  H         4.5400763807        1.9462628043        7.8324718022
  H         5.5883206687        0.6272714005        8.0066702076
  C         7.6694159140        1.5759792176        9.2226049748
  H         6.7363658483        2.6536070402        7.6925969127
  H         6.2178645136        3.2004360851        9.2508322314
  C         8.9834160186        2.4930302502        9.4396087468
  H         7.9513036304        0.8934539496        8.4451668943
  H         7.5535201382        1.1217144226       10.2626571565
  C         8.6544187561        3.7989696077       10.0240130412
  C         9.3851176779        3.1875009748        8.1982431880
  C        10.1117646973        1.8403816278       10.2076662125
  C         8.9331725002        4.9177114119        9.2994276782
  C         8.1864124302        4.2213072961       11.3099509317
  C         9.4451573250        4.5658734668        8.1142955413
  C         9.8495707681        2.6367681588        6.9955007385
  H         9.6978338962        1.4986788331       11.1527571775
  H        10.4159341770        0.8370634635        9.7292927273
  C        11.4457359113        2.5319726199       10.2622526256
  S         8.5733391999        6.4482734500       10.0928729420
  C         8.0531905571        5.5818745417       11.4514004130
  H         8.0580482502        3.4190588563       12.0634918544
  C         9.9307349064        5.2089660067        7.0106317738
  H         9.7102231198        1.5614831440        6.9532540971
  C        10.3112524296        3.2532328287        5.8748080330
  H        11.2230062651        3.5788413027       10.5490954070
  H        11.9732335248        2.5068295803        9.2862539380
  C        12.3945045484        2.0039222059       11.3427127529
  C         7.5665023191        6.2898054695       12.6924543200
  C        10.4047041519        4.5887596898        5.8301255529
  H        10.0599711766        6.2856509993        7.0128110559
  C        10.7825982414        2.9664352326        4.6182322389
  H        13.3239379802        2.5511358912       11.1550887976
  H        12.5697919236        0.9568839531       11.2436733756
  C        11.8691794281        2.4874230953       12.7197068594
  C         7.5059962843        7.6904075875       12.9213406984
  C         7.1292324644        5.4421178934       13.8113026048
  C        10.8763264723        5.3810235316        4.6278172876
  C        11.1478143190        4.0645424885        3.8646164613
  S        11.1035332995        1.4400733615        3.8261705058
  H        11.9111759781        3.5570427850       12.6969409437
  H        10.7555190212        2.3260416110       12.9100595881
  C        12.7533085676        1.9243765168       13.8442745652
  N         7.8145838753        8.6796759685       11.9939863597
  C         7.0878258738        8.2569815054       14.1546604481
  C         6.7874810391        5.9722810293       15.0582648258
  H         7.1821727216        4.3848045232       13.7418555180
  C        12.1424622515        6.2679898936        4.8184676396
  C         9.6599674741        6.1685319223        4.0455252904
  C        11.5269224725        3.6415224739        2.5529341248
  C        11.5771231224        2.3002300788        2.4059228432
  H        13.8122324202        2.1581541347       13.6279189730
  H        12.7992579135        0.8232490229       13.6731829373
  C        12.1936628218        2.1149570863       15.1519520054
  S         7.7022035899       10.1573590387       12.7114010559
  N         7.1393413366        9.6506039318       14.1629757578
  C         6.7369265221        7.4501639974       15.2897335034
  H         6.5799685027        5.3365369745       15.8748105378
  H        11.8508932121        6.9746671923        5.6571792703
  H        12.4161356023        6.7933171838        3.9643671514
  C        13.4194154444        5.6027042902        5.2904648675
  H         9.2065249965        6.6950072248        4.8299884408
  H        10.0661403447        6.9641700778        3.3733070919
  C         8.5493826651        5.4245540442        3.3129121632
  H        11.7419473963        4.4365353347        1.8591827443
  C        11.8257160294        1.6104447558        1.1064715722
  H        11.9256774147        3.1729734458       15.3162661061
  H        11.2371100615        1.5361164921       15.3020498715
  C        13.1628960570        1.7288822254       16.2334505214
  C         6.3091946876        8.0656618344       16.4720257458
  H        13.2285563853        4.9800436261        6.1920083351
  H        13.8186005142        5.0453853848        4.4771524358
  C        14.5527740855        6.6006087458        5.5104506615
  H         8.3543576222        4.5359424113        3.8630243822
  H         8.9239856506        5.2099424285        2.2910140305
  C         7.2840569702        6.3249361270        3.0485398400
  C        11.8538616699        0.2364182540        0.8875750043
  C        11.9904014761        2.3586392475       -0.1621197827
  H        14.1213402771        2.3395861089       16.0786306534
  H        13.3747500258        0.6848279876       16.2771845344
  C        12.4804833595        2.0244233470       17.5306139724
  H         6.1463714395        9.1496357225       16.4132120630
  C         6.1206101095        7.6362370142       17.7626789299
  H        14.3455292553        7.2581887869        6.3723551480
  H        14.5007603844        7.2054853115        4.6088134459
  C        15.8352467312        5.8002625332        5.7695729815
  H         6.9557444209        6.8330121853        4.0021136586
  H         7.5100224343        7.0027925414        2.2374531328
  C         6.0976557022        5.5083193867        2.6099107703
  N        11.6391752269       -0.7221578928        1.8689050595
  C        12.0422719822       -0.3580337465       -0.3305193552
  C        12.1933030952        1.7598455904       -1.3983090213
  H        11.9679596464        3.4235418686       -0.0128143103
  H        12.1749537949        3.0928797480       17.4489016319
  H        13.1880873016        2.0155771467       18.4232069002
  H        11.4941133261        1.4827703444       17.7089433937
  S         5.8283865169        6.0073002741       18.2502364242
  C         5.9933619302        8.6498805562       18.8435908953
  H        15.8117234425        4.7204260961        5.3709968441
  H        16.5837333430        6.2982046015        5.2371912341
  C        16.1817527231        5.7043228611        7.2678172421
  H         5.5415948101        4.9796618092        3.3965199138
  H         6.4169429077        4.6374433547        1.9623851558
  C         5.0600136146        6.3979334064        1.8319349536
  S        11.5678996016       -2.2111385399        1.1817718619
  N        12.0115296659       -1.7526373283       -0.2889561221
  C        12.2903057509        0.2744567299       -1.5319863730
  H        12.2054179309        2.3926516085       -2.2946350117
  C         5.4994949850        6.8000445546       19.8403291609
  N         5.6001382560        8.1123079120       19.9727349214
  O         6.2120933589        9.8781753887       18.6888840557
  H        16.0147038581        6.7067545476        7.8218544535
  H        15.5438679802        5.0019477879        7.7850366210
  C        17.6450634694        5.1435272467        7.3835303176
  H         5.5879651025        7.3155208688        1.5021944895
  H         4.5965447745        5.8520064923        1.0048810134
  C         3.9123216125        6.9121524611        2.7449395493
  C        12.5789414574       -0.5911538549       -2.6548552309
  S         5.1137958518        5.8848671137       21.3204227841
  C         5.6195284111        8.9369980720       21.1827536679
  H        17.7766278932        4.7911380403        8.3956319784
  H        17.8221011910        4.2184263216        6.8131134846
  C        18.7353259460        6.2258396208        7.2228761184
  H         4.0792934374        6.7131842122        3.8109280064
  H         3.0021239557        6.4125913835        2.4261568247
  C         3.7559871342        8.4219977210        2.7249010403
  H        12.1689565141       -1.5652012902       -2.6527478540
  C        13.0838304335       -0.2989733408       -3.8971363793
  H         4.8263831793        8.6086700768       21.9242360552
  H         5.2328961980        9.9704968867       20.9996303263
  C         6.8360992695        8.8078347734       21.9925286730
  H        19.2985713005        6.2745071349        8.1312878317
  H        18.4887192668        7.2335828156        7.0749376682
  C        19.7171198499        5.8027601937        6.1182610684
  H         3.0413021529        8.6529545873        3.5134742815
  H         4.6180657825        9.0175486661        3.0475377692
  C         3.2087527063        8.9627556770        1.4196912941
  S        13.6697545175        1.2195815575       -4.4698323073
  C        13.1501752615       -1.3053068602       -4.9394173321
  H         6.6151928357        8.1032138687       22.8194786078
  H         7.0526991141        9.7677314457       22.4783041981
  H         7.6934028262        8.6542243207       21.3648533984
  H        19.3228814645        5.9228466479        5.1700010606
  H        20.6573527287        6.3971433185        6.1591145231
  H        19.9493622763        4.7212458348        6.2590363313
  H         3.2328887190       10.0360817641        1.5348487725
  H         3.7732202132        8.6530796622        0.5308344321
  H         2.1955306865        8.6099162313        1.2618185962
  C        13.8281639092        0.5339441197       -6.0614592402
  N        13.6434792058       -0.7854184399       -6.1205394235
  O        12.8466299268       -2.5055004146       -4.7701286019
  S        14.4770897716        1.3912084695       -7.5010262725
  C        13.8564270668       -1.5850979084       -7.3064942009
  H        14.2060138450       -2.6168469900       -7.1052867436
  H        14.7639416570       -1.2457130884       -7.8175797579
  C        12.7157498013       -1.4448925076       -8.1675908820
  H        12.5993848936       -0.5198930392       -8.7436136845
  H        11.8119010375       -1.7365775196       -7.7247303634
  H        12.8743661630       -2.1560496462       -8.9396241478
  H        -3.8039934882       14.0365958738       16.3492874979
  C        -3.5366696759       13.0122609687       16.2925688647
  H        -4.3958366126       12.3688334638       16.4091501304
  C        -2.5253290374       12.7563445003       17.4393136391
  C        -2.9093726411       12.8209303923       14.9054406309
  C        -2.9525413271       13.3603190831       18.7742536846
  H        -2.3166537538       11.6676605187       17.5043315227
  H        -1.5420906695       13.1908779250       17.1372960636
  H        -3.5940227218       13.2534238889       14.1286996949
  H        -1.9432481237       13.3166028011       14.8652226272
  H        -2.7975916264       11.7406657819       14.8483669732
  C        -2.2939724803       12.7092624202       19.9065686063
  H        -4.0249349126       13.3020590095       18.7971480197
  H        -2.7670799545       14.3774631768       18.8951034372
  C        -2.8670903820       13.0533186556       21.2514162141
  H        -2.3236834025       11.5829658532       19.6960835612
  H        -1.2233887087       12.8950603509       19.8823305105
  C        -2.0078185199       12.3795016197       22.2747504428
  H        -3.8361501327       12.7161383289       21.1925354955
  H        -2.9049292313       14.2002576026       21.3290234459
  C        -0.9399683642       13.3969547493       22.7570135217
  H        -2.5171827478       11.9907007906       23.1636336378
  H        -1.5430476387       11.4262081576       21.8866252611
  C         0.4025988839       12.7361152925       23.3084105512
  H        -0.6698370855       13.9507363941       21.8494690499
  H        -1.2208411149       14.1003602035       23.5151792767
  C         0.8101820214       11.4494591306       22.5666828796
  C         0.0712249201       12.0107932920       24.5669116883
  C         1.5574187018       13.7464677415       23.5315944860
  C         0.7328716559       10.3795892224       23.4554220821
  C         1.4029390424       11.0978560351       21.2984880027
  C         0.2031177661       10.6665978486       24.6433321511
  C        -0.3410089872       12.6182161951       25.7401703945
  H         1.7235896891       14.2766091058       22.5661586658
  H         1.1940647426       14.5592688067       24.1601677835
  C         2.8253369334       13.0922570269       24.0367420120
  S         1.2593628503        8.8877340173       22.7068530989
  C         1.5611962985        9.7324543246       21.1899214433
  H         1.6741185426       11.8505443132       20.5801245681
  C         0.0286699583       10.0568112187       25.8640826353
  H        -0.5982899846       13.6602746925       25.6871710707
  C        -0.5595890582       11.9707315451       26.9424649471
  H         3.2599137803       12.4901956075       23.2952762588
  H         2.6357769580       12.5836190285       24.8976232212
  C         3.9123721101       14.1216894367       24.2890233977
  C         2.0317333903        8.9869241323       19.9734275995
  C        -0.4255675714       10.6096156384       27.0031344519
  H         0.1650606178        8.9549960254       25.8578919832
  C        -0.9838566362       12.3838883572       28.1581936324
  H         4.6131670569       13.6720529551       24.9920168764
  H         3.5676306487       14.9927716350       24.8524236887
  C         4.5876797493       14.6581336808       22.9976125321
  C         2.0586476026        7.5871646561       19.7492594929
  C         2.4719330402        9.7554134603       18.7954297163
  C        -0.7482552564        9.9472291530       28.3040395614
  C        -1.1610874127       11.2666907874       28.9792301326
  S        -1.2410473174       13.8493546605       28.8357411119
  H         5.0010176027       15.5630302557       23.2737421903
  H         3.7770008017       14.8173865132       22.3345844338
  C         5.6193010588       13.7155502279       22.3507679880
  N         1.6029694201        6.5989336062       20.6527416538
  C         2.3721830892        7.0112713692       18.5648802696
  C         2.9038691964        9.1708838227       17.6597874986
  H         2.7270286364       10.7571344311       18.9409840353
  C         0.3671402613        9.2718745592       29.1257107527
  C        -2.0165583084        9.0745400468       28.1073271842
  C        -1.5734840302       11.6440097517       30.2858798507
  C        -1.6382508366       13.0288868520       30.3503988459
  H         6.5727864910       14.2868188978       22.3986888877
  H         5.7088155183       12.8168655588       22.8529211835
  C         5.0784158226       13.4948802467       20.9270615951
  S         1.9097693717        5.1168004833       20.0302410241
  N         2.2750741284        5.6088707409       18.5565407341
  C         2.7489148108        7.7005198540       17.4388102192
  H         3.3272809385        9.8251473670       16.9238132109
  H         0.6653923953        8.4653270035       28.5190715397
  H        -0.0034622011        8.7288960081       29.9081426206
  C         1.5501732899       10.0557624650       29.5710259463
  H        -1.9758878277        8.2538702538       27.3705473489
  H        -2.4682708655        8.6489650721       29.0244499079
  C        -3.2400207621        9.9287273596       27.6840342470
  H        -1.6963366754       10.8593009670       31.0523032127
  C        -1.9797083756       13.7427320699       31.6148883217
  H         4.6090261696       14.4691402232       20.6648287314
  H         4.2408209650       12.7367225071       21.0055672199
  C         6.0257506835       13.1721752193       19.7832161247
  C         3.0217996489        7.0291425622       16.2120201716
  H         1.8710484739       10.6433536927       28.7200191258
  H         1.3070806773       10.6302881289       30.4559750368
  C         2.6172085222        9.0320486839       30.0272766227
  H        -3.0771983531       10.5907355350       26.8829133509
  H        -3.5906721493       10.6017187230       28.5278955339
  C        -4.3754139459        9.1657046860       27.2153930832
  C        -1.8875248191       15.1362156847       31.8118479445
  C        -2.2854426818       12.9997096471       32.8220418550
  H         5.5413650256       12.5751600827       19.0363012090
  H         6.2000219372       14.1954068233       19.4367229274
  C         7.4375844463       12.5308999153       20.1128294336
  H         3.0038312685        5.9661610261       16.2465943472
  C         3.4061091209        7.4818086464       15.0170313655
  H         2.9872946251        8.4344228039       29.1833438151
  H         2.1262691083        8.3400985154       30.7568061630
  C         3.7978210445        9.7917390194       30.5840199867
  H        -4.1013940866        8.5168750512       26.4100478605
  H        -4.6603387645        8.4428958923       28.0173050919
  C        -5.6662511807        9.9788228888       26.8773361682
  N        -1.6083429075       16.0764273080       30.7851288813
  C        -2.2084907194       15.7411864930       33.0130793655
  C        -2.6057168424       13.6102330842       34.0979331841
  H        -2.3329059573       11.9229541084       32.6857552615
  H         7.2591494236       11.7200645680       20.8139525842
  H         7.8966491183       12.1379319695       19.2345952073
  H         8.1171853710       13.2514313159       20.6052036932
  S         3.4747036867        9.1509894764       14.4881995416
  C         3.7072641852        6.4624447689       13.9669803139
  H         3.9120869850       10.7353639940       30.0523078809
  H         3.6652811427       10.1076648393       31.6493159218
  C         5.1038826882        9.1399345507       30.6617395194
  H        -5.3718759443       10.7965796569       26.2237984731
  H        -6.0402091890       10.4369366182       27.8229985200
  C        -6.7557730251        9.2502036170       26.1678500284
  S        -1.9480704537       17.5469394534       31.3769695430
  N        -2.1429627650       17.1452081791       32.9583601619
  C        -2.5701377734       15.0876709368       34.2015807395
  H        -2.8337288665       12.9854372301       34.9724786359
  C         3.8139148154        8.4756300445       12.9618076212
  N         4.0751751942        7.1360817085       12.8877242702
  O         3.7824064845        5.2451860068       14.1406561633
  H         5.7952153570        9.6949410578       31.2299682539
  H         5.6771577001        9.2549324005       29.6453684833
  C         5.0724026371        7.6838505295       31.2151273881
  H        -6.2802773968        8.6474865948       25.4295291312
  H        -7.2774742529        8.5873936919       26.8087389767
  C        -7.7241262433       10.1121024793       25.3743563030
  C        -2.8512743291       15.8006824957       35.3558214721
  S         4.2909278052        9.3767696779       11.5743339673
  C         4.1538126308        6.3316101308       11.6460830218
  H         5.7261824477        7.5834546946       32.0962051990
  H         4.0475088911        7.4839870654       31.6137008504
  C         5.4736182155        6.6057902890       30.2133460206
  H        -7.4024561200       10.0840430975       24.2852256851
  H        -7.7773503383       11.1183575804       25.7664221886
  C        -9.1053714247        9.5174067220       25.4620377018
  H        -2.5162911474       16.8085657859       35.4008653315
  C        -3.5892469902       15.4726442755       36.4860448518
  H         4.8101743870        6.8857939540       10.9439666831
  H         4.6515655118        5.3908818102       11.8775564929
  C         2.7329139643        6.1200495315       11.0530504280
  H         4.9446580349        6.5897032482       29.2565853390
  H         5.3676634868        5.6548506930       30.8259978703
  C         6.9964964848        6.5608432836       30.0631003117
  H        -9.6066988180        9.9159760843       24.5891399162
  H        -9.1465253121        8.5445911356       25.1857648309
  C        -9.8416635410        9.8248450437       26.7683885491
  S        -4.3477017830       14.0033344752       36.9020663117
  C        -3.6470510340       16.5170595282       37.5112770743
  H         2.7578902372        6.0846887310        9.9777821673
  H         2.2893572171        5.1744286101       11.5474559482
  H         2.1161866208        7.0129986266       11.3461156788
  H         7.3594676721        7.4313206351       29.4507286150
  H         7.2940748484        5.6357487345       29.5323516835
  H         7.3929984557        6.4355633934       31.0455529987
  H        -9.7594589141       10.8648372950       27.1549642157
  H        -9.7207334873        9.0188060325       27.5740565784
  H       -10.8750122600        9.7870626266       26.5028720797
  C        -4.7236150802       14.7978155946       38.4018044550
  N        -4.2524478415       16.0279863658       38.6160810579
  O        -3.1074588272       17.6182706518       37.4387102802
  S        -5.7373054177       13.9506371854       39.5652604247
  C        -4.2798555729       16.8040429865       39.8734167761
  H        -4.8355305448       17.7135718450       39.8524062772
  H        -4.8120842642       16.3059638879       40.6746884608
  C        -2.9154028277       16.9705869120       40.4338866494
  H        -2.9536238351       16.3907429340       41.3842496799
  H        -2.1220853794       16.5791524511       39.8677227138
  H        -2.8368653018       17.9927168963       40.7088584383
