352
i=
  H         4.2956272756        1.6180381321       12.4286301543
  C         3.4347894697        2.2954644884       12.5686312723
  H         3.9843622463        3.1911992734       12.6624850171
  C         2.5483290678        2.5873466969       11.3496290450
  C         2.6524808051        1.8532641811       13.8295341654
  C         3.3198214151        2.8387888342       10.1174317108
  H         1.9461701093        3.5216884478       11.5352015746
  H         1.8231711553        1.7736988925       11.2189175875
  H         1.8006462215        2.4768959325       14.1672187143
  H         3.3130810716        1.9934468037       14.6737591582
  H         2.3411890604        0.8466118102       13.8878515029
  C         4.1810493894        1.7104089162        9.6002451701
  H         2.5827357156        3.2166187345        9.4450748468
  H         3.9273217692        3.7378430660       10.4490058560
  C         4.9201770988        1.8160918499        8.2771767214
  H         3.5868680212        0.8338438218        9.6120637279
  H         4.9382863919        1.4395630994       10.3203252271
  C         6.2459322762        2.5985667408        8.5686940612
  H         4.3750630635        2.4341149815        7.5496792526
  H         5.0353335128        0.7739519489        7.8208134814
  C         7.3788076542        1.7080216901        8.9834072046
  H         6.3892528200        3.1973091878        7.7069433559
  H         6.1190832806        3.3471891988        9.3316030593
  C         8.7474803185        2.3629457412        9.3355833853
  H         7.5164369724        1.0016970091        8.2020784833
  H         7.0796725886        1.1164833257        9.8177881954
  C         8.4828511864        3.6796629069       10.0734434228
  C         9.3078685005        3.0974718098        8.1760321871
  C         9.7876559080        1.7258598965       10.2429270196
  C         8.7747534972        4.7809563069        9.3345946269
  C         7.9740130753        4.0449153553       11.3431361072
  C         9.4054612651        4.4298456191        8.1461213638
  C         9.8653643338        2.4751091640        7.0931779989
  H         9.4149967583        1.5392113099       11.2546564767
  H         9.9919515496        0.6987914678        9.9649041257
  C        11.2326540799        2.3833736620       10.2047042052
  S         8.4175317907        6.2687236729       10.1009548296
  C         7.8299998130        5.3878428536       11.4384570073
  H         7.7735992961        3.2426284620       11.9781373596
  C         9.8497842205        5.1288839846        7.0285966285
  H         9.9921525069        1.4122681704        7.0885673838
  C        10.2625422636        3.1377462966        5.9851931830
  H        11.1952045894        3.4421652628       10.2177536537
  H        11.6694177426        2.1053801309        9.2914389096
  C        12.1882989125        1.7991352533       11.2502486821
  C         7.2757281896        6.0245038102       12.6711599807
  C        10.2236086390        4.4786779602        5.8441908726
  H         9.8178654984        6.2117157939        7.1046310944
  C        10.6575572016        2.7302642971        4.7147798625
  H        13.0657941772        2.2600246573       10.9472144681
  H        12.4037909348        0.6853413552       11.1978234349
  C        11.9182129794        2.1557534087       12.6892020341
  C         7.3640560741        7.3820749912       13.0211954653
  C         6.6923690440        5.1158322653       13.7313029348
  C        10.5917147127        5.1389728610        4.5601951722
  C        10.8823003382        3.8166887892        3.8728647578
  S        10.9489532479        1.2453569409        3.9819159850
  H        12.5927698989        3.0102441776       13.0600739670
  H        10.8615024862        2.5691142244       12.8835596667
  C        12.2886591408        0.9690397780       13.6566500719
  N         7.4708528204        8.4607294442       12.1191428494
  C         7.2072150552        7.8395784667       14.2901869016
  C         6.4873590505        5.5855774553       15.0215234704
  H         6.5940210444        4.0935754911       13.6190658681
  C        11.9043170405        5.9448282837        4.6704082269
  C         9.4193681819        5.8957409928        3.9103500933
  C        11.2957911813        3.3879565598        2.6078896944
  C        11.3592922572        2.0423078606        2.5240676325
  H        13.3879096941        0.8070258726       13.4632160538
  H        11.8314945999        0.1027243155       13.2905291904
  C        12.0149641999        1.2685706246       15.1432110439
  S         7.6745657282        9.8502205196       12.8923951471
  N         7.3954902912        9.2155481582       14.4050711468
  C         6.7513134036        7.0188832075       15.3582789850
  H         6.0616144376        4.9098368113       15.7344773091
  H        11.6955089948        6.7864352479        5.3241340817
  H        12.1046681353        6.2934993383        3.6602107592
  C        13.1236632464        5.2790978146        5.2987615310
  H         8.9307424877        6.5788577796        4.6168586249
  H         9.8442158395        6.4568828579        3.1291991896
  C         8.3268864492        4.9991522721        3.2828962042
  H        11.5007555988        4.1751700257        1.9292337525
  C        11.7386894370        1.3582724149        1.1891230010
  H        11.4175085729        2.1822019585       15.3438737635
  H        11.3521337609        0.5279098552       15.4936426427
  C        13.1912760787        1.4296034092       16.0437615494
  C         6.6604045915        7.7236469257       16.5667645134
  H        12.8806936471        5.1813896941        6.3319187520
  H        13.2012377543        4.2646348504        4.8287574291
  C        14.3916287855        6.1487323683        5.0448403444
  H         7.7937095926        4.3062476152        3.9585076042
  H         8.8113016877        4.3104171806        2.5435358439
  C         7.3479416413        5.9632620056        2.5865451781
  C        11.8599735973       -0.0671966172        1.0245584782
  C        11.9674050868        2.0704504281       -0.0804598573
  H        13.9441012716        2.0046809821       15.4853946620
  H        13.6329558259        0.4320949228       16.1967709238
  C        12.7961382564        2.0902668859       17.3771719054
  H         7.0867552901        8.7571900928       16.6220880727
  C         6.3575011848        7.3167067960       17.7982377469
  H        14.4271593273        7.0189647948        5.6784443537
  H        14.3711637077        6.5734690004        3.9881681566
  C        15.7102839794        5.3788922479        5.3109232746
  H         7.0006436213        6.8026353026        3.1553742073
  H         7.9752123380        6.4493434888        1.8399117152
  C         6.0523308828        5.2178567549        2.0880722771
  N        11.6287807954       -0.9730323276        2.0464352556
  C        12.1652020780       -0.6277478389       -0.2543771357
  C        12.2514480858        1.5306881995       -1.3501164407
  H        11.7815796349        3.1139710427       -0.0310060181
  H        12.2475585264        3.0566151420       17.2469562376
  H        13.6846996893        2.2074160183       18.0456667100
  H        12.0639429794        1.4565186507       17.9052335172
  S         6.1856292392        5.7081903565       18.4068763042
  C         6.4225268161        8.3913564319       18.9108742560
  H        15.6174127279        4.3695685767        4.9175236430
  H        16.4872954626        5.8210165876        4.7179536817
  C        16.0360851860        5.4282993359        6.8008641748
  H         5.4875657130        5.0475380661        2.9805157090
  H         6.2585558349        4.3110864621        1.6126653172
  C         5.2058668590        6.1823345087        1.2308343258
  S        11.6809362529       -2.4404929435        1.4002222446
  N        12.1052073780       -2.0090572984       -0.1902490416
  C        12.2541571468        0.0296361171       -1.5172473176
  H        12.2985058669        2.1368145726       -2.2445319293
  C         5.9492505624        6.4259760891       19.9642980523
  N         6.0224876930        7.7926617762       20.0720730323
  O         6.5540659038        9.6149070206       18.6281222249
  H        15.7687418222        6.3904682868        7.2190828827
  H        15.2859268872        4.8737788016        7.3148928029
  C        17.4904094063        4.9811774203        7.1251594789
  H         5.7440633328        6.7729707261        0.4431304586
  H         4.4163405650        5.6299340095        0.6029464282
  C         4.2958615386        7.1519889378        1.9820379638
  C        12.4930823417       -0.7849523547       -2.6355162156
  S         5.4101194456        5.5719179446       21.3963352167
  C         5.9044899007        8.6048317555       21.2561076860
  H        17.6580615040        4.9211387371        8.1833316598
  H        17.6276986536        3.9500695865        6.7221480103
  C        18.5848562286        5.8258406373        6.4736551266
  H         4.8100079119        7.4473004459        2.8905848155
  H         3.4103790082        6.5943973523        2.4176235056
  C         3.7403505540        8.2771038924        1.0437308578
  H        11.9363824307       -1.7461846993       -2.6505799193
  C        13.0919010284       -0.5068337287       -3.8442467451
  H         5.0086027703        8.3174444070       21.7932164799
  H         5.6524152706        9.5855956928       21.0348159772
  C         7.1688570828        8.7076226016       22.0119327458
  H        19.3544803380        6.0292922910        7.2284672599
  H        18.0984740979        6.7326676938        6.2939339021
  C        19.2044816123        5.2755153605        5.1311786125
  H         3.8515406221        7.8169832251        0.0261820904
  H         2.6739213752        8.4014776929        1.3506768760
  C         4.4218521822        9.6430886820        1.1353232966
  S        13.7205471519        1.0498558096       -4.3111225431
  C        13.1413524921       -1.5561642474       -4.8955834516
  H         8.0115005655        8.4950147428       21.3183016288
  H         7.1520627159        8.1350386259       22.8891984828
  H         7.2661404136        9.7362254163       22.3033702040
  H        18.4081497901        4.9374150841        4.4480143295
  H        19.8363540407        6.0785461673        4.7498171016
  H        19.8972098682        4.4867758641        5.3370920628
  H         5.3568739535        9.4625792234        0.6508496034
  H         3.8499678851       10.3716447246        0.5521835228
  H         4.5857394495        9.9512978244        2.1660847253
  C        14.0967026873        0.3180166633       -5.8311213731
  N        13.7910479755       -1.0156097921       -5.9804185498
  O        12.7918689900       -2.7167827765       -4.6953796933
  S        14.9868929273        1.1249292472       -7.1240218209
  C        14.0293786803       -1.8521465115       -7.1590228755
  H        14.0610629872       -2.9653254373       -6.8466493578
  H        15.0826051808       -1.6251726770       -7.5020085820
  C        12.9034856338       -1.5703439548       -8.1161211947
  H        12.7708052525       -0.4673101185       -8.4171663082
  H        11.9361752693       -1.9474499497       -7.7965027108
  H        13.1273603816       -1.9586526485       -9.0989879382
  H        -4.1766351035       14.4196029348       16.5078178918
  C        -3.4515328108       13.5198168952       16.4839196501
  H        -3.9980975023       12.6939715176       16.8935830324
  C        -2.1729859374       13.6785488767       17.3790224960
  C        -3.1351736062       13.1421213956       15.0174122677
  C        -2.5501964340       14.1614765685       18.7454355261
  H        -1.6067459051       12.7542168044       17.3819530206
  H        -1.5505484162       14.4582527150       16.8312216504
  H        -3.6301755496       13.7528910002       14.2446143243
  H        -2.0893699486       13.1901938821       14.8714990857
  H        -3.3364830445       12.0542870031       14.9438454367
  C        -2.3575674603       13.0615900739       19.8269883461
  H        -3.5534591590       14.5661367458       18.6910732649
  H        -1.9535824851       15.0932137002       18.8332942784
  C        -2.2961230001       13.5405240085       21.3213753039
  H        -3.1545934906       12.3343674636       19.6849167560
  H        -1.4643347046       12.5113163388       19.5594926216
  C        -1.2356233231       12.8017919039       22.1842047568
  H        -3.3201582746       13.3786670072       21.6421382156
  H        -2.1901217971       14.5900873680       21.4113578692
  C         0.0375654380       13.5661757828       22.4077967474
  H        -1.5156377683       12.4301772710       23.1871082052
  H        -1.0256371097       11.9457972528       21.5754068685
  C         1.1845745428       12.6961800913       23.0978387729
  H         0.3551161352       14.0534169964       21.4841071929
  H        -0.1427829973       14.4111844895       23.0876039261
  C         1.4495997777       11.3986233932       22.3831313602
  C         0.7032116797       11.9664023990       24.3798322738
  C         2.4007114916       13.5769414570       23.2396947457
  C         1.2919888759       10.2741868640       23.1666779018
  C         1.8056260282       11.0923696703       21.0820416025
  C         0.7776690575       10.6124965565       24.3578960695
  C         0.2150954919       12.4851782799       25.5154968508
  H         2.6472721695       14.0514749051       22.2860764296
  H         2.1496594571       14.4258810448       23.9121751706
  C         3.6496440466       12.9040168350       23.8461005007
  S         1.7216669632        8.8359840698       22.3353083605
  C         2.0712876502        9.7806175100       20.9236059733
  H         1.9722984546       11.8844905169       20.3435646208
  C         0.3878518242        9.9006119358       25.4888449959
  H        -0.1288474642       13.5140477132       25.5590263184
  C        -0.1946259406       11.8667667875       26.6545293416
  H         3.9785044947       12.0278431174       23.2154731513
  H         3.4536623775       12.4416276582       24.8262312102
  C         4.8250242441       13.9522876868       24.0776128019
  C         2.3584392904        9.1792896866       19.6252680100
  C         0.0072908854       10.5107933675       26.6794633588
  H         0.3572173457        8.8342975924       25.4179812547
  C        -0.6719075185       12.1977324794       27.9030731908
  H         5.5926403674       13.4789757057       24.6648405395
  H         4.5501503533       14.8405987593       24.6982937600
  C         5.5274502797       14.2971472540       22.8245803889
  C         2.3550130669        7.7560738379       19.3344233466
  C         2.8878893143       10.0342201055       18.5320435683
  C        -0.4682323535        9.7780344893       27.9283447841
  C        -0.7105272750       11.0777356055       28.6920511528
  S        -0.9657769846       13.6800351482       28.7121819781
  H         6.3674548303       14.9390925932       23.0615030681
  H         4.8992410620       14.9199465016       22.1473421847
  C         6.1254515280       13.1272563432       21.9314985508
  N         2.1863563689        6.7748598827       20.3002340442
  C         2.7381581072        7.2737924908       18.0806878262
  C         3.1549003878        9.5235853941       17.2649181913
  H         3.0982142217       11.0336187645       18.7310418499
  C         0.6805035222        8.8979443212       28.6098230815
  C        -1.7401236422        8.8873557012       27.7307587867
  C        -0.9694600314       11.4543654653       30.0997508279
  C        -1.1125794948       12.8298556281       30.2230999374
  H         7.0643137341       13.5411356672       21.6419799962
  H         6.4441634473       12.2245558055       22.5142268207
  C         5.3200521854       12.7616740683       20.6793209771
  S         2.4412366497        5.3384659406       19.5297302913
  N         2.7035321310        5.8639470951       18.0546343025
  C         2.9755297871        8.1218318436       16.9717351256
  H         3.7379400494       10.1360161106       16.5459398442
  H         1.0760324811        8.1074008736       28.0354709655
  H         0.2945764626        8.1869143659       29.3108627600
  C         1.8548011356        9.7673463968       29.1002253209
  H        -1.4831247624        8.1137708132       26.9573821637
  H        -1.8804229686        8.3329200893       28.6767587746
  C        -3.0282962131        9.6993626316       27.4428705893
  H        -1.1668189462       10.6110836824       30.7451964453
  C        -1.3707186827       13.5160364877       31.5432233358
  H         4.3259706437       12.4815999148       21.0693318242
  H         5.5703106189       11.6935053800       20.3489771266
  C         5.2569762592       13.6908228213       19.4778072509
  C         3.3246728742        7.5645257819       15.6855385589
  H         2.1316283475       10.3281080336       28.1720967370
  H         1.5632849215       10.4327904110       29.8543519285
  C         3.0189663402        8.8643877085       29.6033255481
  H        -2.9108433553       10.5349916053       26.7249218352
  H        -3.1862535186       10.2342711959       28.4009258543
  C        -4.2772577515        8.8627311993       27.0781623029
  C        -1.4846856702       14.9574516030       31.6685284530
  C        -1.6403928002       12.7173287717       32.7859018459
  H         4.3973541461       13.5422219279       18.9297946254
  H         5.0685542022       14.7510732335       19.7659627145
  C         6.5374236623       13.6045470474       18.6436296356
  H         3.3606213603        6.5160349924       15.7059041601
  C         3.6952923715        8.1375783757       14.4786119161
  H         3.4835991881        8.2542713795       28.8296573324
  H         2.6538847097        8.0622057721       30.2210631450
  C         4.1194922668        9.5925643170       30.3470409222
  H        -4.0128652073        8.2416470519       26.2362240820
  H        -4.5506097734        8.2037591228       27.8415961698
  C        -5.4122247001        9.8271662950       26.6747794009
  N        -1.1445694358       15.8447612761       30.6340891635
  C        -1.7211215590       15.6015540459       32.8988685843
  C        -1.8952746741       13.3610359556       34.0120846257
  H        -1.5599370790       11.6339704132       32.7111086090
  H         6.9980696434       12.6181072631       18.6720448993
  H         6.2307283831       13.9275369011       17.6492192967
  H         7.1949822258       14.2778662124       19.1251487556
  S         3.8250120677        9.7061958846       13.9070766137
  C         3.8151262506        7.1289388652       13.3749427492
  H         4.1354054223       10.6967088143       30.0000535636
  H         3.8177200504        9.7039016653       31.3888117027
  C         5.5085656959        9.1161326172       30.2398903722
  H        -4.9483909051       10.5750874985       26.0643771144
  H        -5.7992417630       10.2184432736       27.6537332072
  C        -6.5175177335        9.2609027342       25.8401493710
  S        -1.2863463509       17.3572245829       31.1979350440
  N        -1.7136192748       16.9897293736       32.7506564888
  C        -1.9341962575       14.8848929840       34.1193058013
  H        -2.0998475221       12.7593723820       34.9180293095
  C         4.3629079912        9.0009431399       12.3303562205
  N         4.2563449277        7.6575481469       12.2218279096
  O         3.5657297343        5.9642594804       13.4820573967
  H         6.1362982344        9.8786668770       30.6696223760
  H         5.8578077131        8.8118028153       29.1700056971
  C         5.7379261291        7.7887153940       31.0248939364
  H        -6.0322386767        8.7787604166       24.9840194158
  H        -6.9515798675        8.4865372456       26.4231459329
  C        -7.4945009550       10.2140187298       25.2444858459
  C        -2.1857116224       15.6894443594       35.3124553362
  S         4.6557336453       10.0416151657       10.8561369417
  C         4.3140126619        6.9503770411       10.9512263841
  H         6.2546075831        8.0620855898       31.8739148619
  H         4.7364355875        7.4111654233       31.2880363005
  C         6.5425563361        6.8214823152       30.1258873432
  H        -7.0851398542       10.4735518304       24.2876799759
  H        -7.4616844679       11.1866837347       25.7516272840
  C        -8.8798874242        9.5670844548       25.2253403907
  H        -1.8822884232       16.7527046670       35.3429847530
  C        -2.7452994045       15.3338558287       36.5196646691
  H         5.1045240509        7.3330215294       10.3472447036
  H         4.6541705352        5.9094021901       11.0712250620
  C         2.9840147443        6.8588369727       10.2373182767
  H         7.4093680738        7.3435703694       29.6934651419
  H         5.8589583142        6.3304931836       29.4048808513
  C         7.1901316360        5.7775499436       30.9915160598
  H        -9.5089615457       10.2169206094       24.6302204726
  H        -8.7867250502        8.6586247063       24.5989680377
  C        -9.6334799327        9.3116311062       26.5510798690
  S        -3.4305345232       13.8157914272       36.9198312632
  C        -2.9153159011       16.3541087569       37.5211031346
  H         2.2757967381        6.1166704425       10.7054737127
  H         2.3756127081        7.7733340566       10.2421376825
  H         3.1051812889        6.6766741204        9.1505785081
  H         6.6270625051        4.8552520813       31.0471360179
  H         7.3636849369        6.1311978141       32.0205855874
  H         8.1989167377        5.5947551812       30.7025944817
  H       -10.6304525813        8.8813362559       26.4503137074
  H        -9.8560298278       10.2613036248       27.0328991591
  H        -8.9281849849        8.8170923604       27.2597948481
  C        -3.7536016535       14.4640057067       38.5033382753
  N        -3.5353137651       15.8208194479       38.5788420579
  O        -2.6217959952       17.5474933583       37.3428490296
  S        -4.6843306450       13.6069064133       39.7644868467
  C        -3.8353266973       16.6007701500       39.6956468584
  H        -3.9505212583       17.6380748756       39.3664795217
  H        -4.7840019783       16.3555510876       40.1866197531
  C        -2.6338424833       16.5398065602       40.7396907322
  H        -1.7079993736       16.9545408092       40.3810287863
  H        -2.8539041685       17.1738796368       41.6383528972
  H        -2.4762019412       15.5616569734       41.0948790660
