352
i=
  H         4.8138224024        1.4055577093       12.6469295854
  C         4.1132579055        2.1974102326       12.7688700615
  H         4.6856482930        3.1094627999       12.5944406818
  C         3.0223580297        2.0429467293       11.7384515498
  C         3.4317201933        2.1157469411       14.1317910178
  C         3.5695526630        2.1760204057       10.3356181488
  H         2.1324470068        2.6805767468       11.9385127806
  H         2.6173793112        1.0496295265       11.6626113625
  H         3.6808920120        1.2070304808       14.6641927798
  H         2.3337578615        2.1957197686       14.0672368448
  H         3.7430954434        2.9320035455       14.7128814875
  C         4.4757442344        0.9973601300        9.9339532482
  H         2.7197540364        2.1655242295        9.6545937922
  H         4.1210189644        3.1274871294       10.2842035359
  C         5.2063014233        1.2144608505        8.6066503582
  H         3.9320367362        0.0634331763        9.8134807439
  H         5.2016890160        0.7852365738       10.7051199647
  C         6.4405648804        2.1231429531        8.6213064766
  H         4.4845690017        1.5113130169        7.8633722199
  H         5.4001328609        0.2596821741        8.2102966239
  C         7.7403147017        1.5109661705        9.1647560084
  H         6.6023659685        2.3712437122        7.5534197348
  H         6.0746651440        3.0173671113        9.2270960464
  C         9.0144884561        2.4436628083        9.3355761420
  H         7.9594931972        0.6908440657        8.5242640142
  H         7.4743054178        0.9536403523       10.0420132219
  C         8.6409621142        3.7518583854        9.9094404092
  C         9.3382335217        3.0817746830        7.9900017759
  C        10.3077619154        1.8060178650       10.0714964920
  C         8.7485635618        4.8497830664        9.1084794137
  C         8.2456627228        4.1086511969       11.1917272269
  C         9.2193108270        4.4566778763        7.8734255155
  C         9.8248286020        2.4916901229        6.8025634737
  H         9.9437161403        1.2230406835       10.8909213087
  H        10.7516277598        1.1085248538        9.3045422525
  C        11.5019750111        2.8171031872       10.4971755655
  S         8.4415632355        6.3198876275        9.9058522101
  C         8.1264304967        5.4460836769       11.3101939261
  H         8.2769173411        3.3088470304       11.9136454130
  C         9.6070544351        5.0467095396        6.6958478392
  H         9.9164895225        1.3908455754        6.8848450305
  C        10.1254277063        3.1920603369        5.6264811134
  H        11.0008265562        3.7485374287       10.8699088047
  H        12.0915934566        3.0160283414        9.6581478230
  C        12.6805918350        2.3586802957       11.4055291482
  C         7.8235878207        6.0561040325       12.6246095924
  C        10.0871904997        4.5124642208        5.5332684731
  H         9.4066613787        6.0715572108        6.6409512818
  C        10.5658871276        2.8578645796        4.3366320401
  H        13.2138346986        3.2264728905       11.7439229839
  H        13.3408217953        1.7629565018       10.8425400987
  C        12.1306874037        1.5480591921       12.6406448375
  C         7.6842548609        7.4135777274       12.8854942208
  C         7.3738977125        5.1806732634       13.7424877848
  C        10.4208270285        5.2630153992        4.2858207250
  C        10.8293250499        3.9537369153        3.5693923132
  S        10.9660296906        1.3891879378        3.5524170506
  H        11.1596243429        1.0946625602       12.6043970368
  H        12.7089546782        0.7582606417       13.0192981145
  C        11.9738897768        2.4688212847       13.8663324679
  N         7.8401552500        8.4662386983       11.9771279532
  C         7.4361696768        7.9397890485       14.1519053525
  C         6.9707997328        5.7560813940       15.0079213321
  H         7.2365447939        4.1511603592       13.6368228359
  C        11.6774922533        6.2241881478        4.3618240757
  C         9.1126041889        5.9835840699        3.7630761478
  C        11.2815905031        3.5838613816        2.2675612861
  C        11.4154817951        2.2106723360        2.1395621728
  H        11.0102896965        2.9199437002       13.8228194320
  H        12.6297307255        3.3531465335       13.9511577153
  C        11.8785626912        1.6308692513       15.1525075886
  S         7.7983086297        9.9033473930       12.6857404177
  N         7.4386505878        9.3025090297       14.1614960268
  C         7.1498634724        7.1647512652       15.3081937639
  H         6.7755181448        5.0695724387       15.8216644146
  H        11.3260751407        7.1266129284        4.7265891137
  H        12.0278908665        6.4691301418        3.4096074265
  C        12.8694866271        5.6690495693        5.1249770577
  H         8.8049739327        6.8799552607        4.4460415911
  H         9.3087347402        6.3851493870        2.7496872444
  C         7.9203833157        5.1146303369        3.5490990426
  H        11.3643429471        4.3188537998        1.5664739603
  C        11.6675218224        1.4993081042        0.8239098036
  H        10.8632962825        1.7083025665       15.4743009315
  H        12.1111393229        0.6085168794       15.0270540922
  C        12.7372796620        2.1666242072       16.2865956290
  C         6.7637772218        7.8519458828       16.5295636493
  H        12.5538979565        5.6428218811        6.1766520696
  H        12.9487459986        4.6462454152        4.8878837348
  C        14.1691217458        6.4716252341        5.0809112429
  H         7.7207284375        4.7585767845        4.5741609825
  H         8.0432830559        4.2784693502        2.9259368698
  C         6.6086532248        5.7699699436        3.0668498876
  C        11.7393703605        0.0792381539        0.7304110616
  C        12.0177499419        2.1866424473       -0.4542679931
  H        12.6998993807        3.2168989942       16.4572429749
  H        13.8366820579        2.0195147857       16.1196497918
  C        12.4902262042        1.3739265184       17.5598046562
  H         6.9686698972        8.8933859158       16.4574614835
  C         6.5384771323        7.4401639679       17.8336916422
  H        13.9937819628        7.5100206363        5.1329340979
  H        14.6846947660        6.2340606970        4.1386177981
  C        14.9896709094        6.1546026044        6.2188013724
  H         5.7808568544        5.1315433029        3.4025939960
  H         6.3856480848        6.7346018082        3.5764941205
  C         6.5779275281        6.0400071405        1.5581805456
  N        11.5870327927       -0.8055803563        1.7987524718
  C        12.0699172590       -0.5791324711       -0.4516621238
  C        12.3533976970        1.5610895801       -1.6458036058
  H        11.9702569144        3.2387025130       -0.4388044472
  H        11.5856839658        1.5856473584       17.9702065767
  H        13.2101740925        1.6546203692       18.3376825983
  H        12.5309920559        0.3254149245       17.4058686273
  S         6.2328329897        5.8775248811       18.4017143024
  C         6.6244689882        8.5620907842       18.8178975214
  H        15.0252082307        6.9195858254        7.0832089158
  H        14.5609017516        5.3209057288        6.6811382292
  C        16.3962875314        5.7950936393        5.8921593630
  H         7.1568372027        5.3204502614        0.9117325632
  H         7.1646534919        6.9230742429        1.3721512332
  C         5.0865593291        6.2666354416        1.1604391623
  S        11.7798260851       -2.3368794312        1.3516271498
  N        12.0594320222       -1.9164892158       -0.2216067637
  C        12.3778940067        0.0593867540       -1.6706899555
  H        12.6038308262        2.2638024735       -2.4258036168
  C         6.1680078050        6.7060985786       19.9687232015
  N         6.1736590154        8.0620120991       19.9152434203
  O         6.8692986151        9.7314554902       18.5649291822
  H        16.3517651822        4.9836837416        5.1602316068
  H        16.9873954847        6.6205402885        5.4120284751
  C        17.0757022983        5.1414213635        7.0862302955
  H         4.8842105375        5.9496339154        0.2206475218
  H         4.5850011889        5.5581916646        1.8175459269
  C         4.4317646995        7.6651284322        1.3677332009
  C        12.7926647444       -0.6846349477       -2.7908936081
  S         5.7487287251        5.9377518658       21.4889599337
  C         6.1515042740        8.7712047476       21.1912180274
  H        16.5214989063        5.4148820762        7.9412407882
  H        17.0544337540        4.0595188934        7.0685505231
  C        18.5119481958        5.5962200823        7.3302262247
  H         5.0303696832        8.1740926098        2.0393401270
  H         3.5585127938        7.7472939493        1.9294796979
  C         4.4812109971        8.4294949278        0.1153731890
  H        12.9912124350       -1.7510955140       -2.6987688106
  C        13.3422310798       -0.3057810854       -3.9853512940
  H         5.3068834027        8.4406185106       21.8187948546
  H         6.0926415566        9.7781551349       20.8885368979
  C         7.4965049674        8.8145595286       21.9441502256
  H        19.0925878236        5.0582656108        8.0774957093
  H        18.5106930496        6.6249715350        7.6436166431
  C        19.3691442094        5.4699303115        6.1078032446
  H         5.2936407906        8.1106324687       -0.5535986263
  H         3.5892913152        8.2147802517       -0.4665373011
  C         4.5756561368        9.9173617544        0.3583119099
  S        13.7059422844        1.2351976271       -4.5245639199
  C        13.6255371835       -1.3390504901       -5.0247213746
  H         7.9118621100        7.7663535591       22.0080749951
  H         7.2847717763        9.2015179325       22.9569054129
  H         8.1047405827        9.4170903496       21.2694485317
  H        19.4893247391        4.3771849459        5.9659715861
  H        18.8529148429        5.9062382972        5.2093064735
  H        20.3205978817        6.0723077989        6.2521964630
  H         5.4712084593       10.2318211350        0.8924228111
  H         4.3887208948       10.5202642874       -0.5772022084
  H         3.7088143796       10.2157011056        0.9492319314
  C        14.2775879141        0.6017022467       -6.0090862610
  N        14.2790483638       -0.7558742029       -6.0515494887
  O        13.4840046673       -2.5634495708       -4.8838500355
  S        15.3610726817        1.3593623959       -7.1475286074
  C        14.7644774023       -1.6178830161       -7.1472237454
  H        14.9664819142       -2.4975403640       -6.6495855510
  H        15.7060755059       -1.2149664566       -7.4695631923
  C        13.6048797846       -1.5264719376       -8.2482283921
  H        12.5956626114       -1.6095823150       -7.8564769249
  H        13.6969677487       -2.3519022641       -8.8737823412
  H        13.6959662410       -0.6538579938       -8.8947065546
  H        -2.9388764932       15.5010378163       16.2963641096
  C        -3.0961387519       14.4011149204       16.2621190596
  H        -4.1331920520       14.3526414871       16.5164474909
  C        -2.2146934584       13.6493002236       17.3019707958
  C        -3.0204083304       13.6745220733       14.8861411936
  C        -2.4767737199       14.1839044527       18.7596899103
  H        -2.4294244491       12.5956957796       17.2258474971
  H        -1.1805499651       13.7643266218       17.0161303310
  H        -2.4384506257       12.8386594130       14.8726314543
  H        -4.0439000431       13.3856357844       14.7154447342
  H        -2.7384837660       14.3328164251       14.0910861512
  C        -2.6985147580       13.0338590568       19.7083336463
  H        -3.3406515810       14.8638252891       18.7732189024
  H        -1.6336098309       14.7115060229       19.1135172148
  C        -2.4093814562       13.4348304485       21.1183821151
  H        -3.7214557311       12.6147702754       19.6189170857
  H        -2.0206082734       12.2974860712       19.3987033526
  C        -1.1211629845       12.8006077250       21.6366545724
  H        -3.2178725946       13.0519228232       21.7287921007
  H        -2.3503448638       14.4887212046       21.2367560160
  C        -0.0202165598       13.7490857554       22.1172464152
  H        -1.3623955463       12.1104970158       22.4270301770
  H        -0.6923872566       12.1387834309       20.8392471279
  C         1.1642442495       13.1078082845       22.8890580249
  H         0.3190625292       14.2837524181       21.2064327562
  H        -0.5144313490       14.4425880059       22.7747050441
  C         1.5828234602       11.7585976247       22.2219924494
  C         0.9052500731       12.4532540051       24.1427300477
  C         2.3629035388       14.1550521091       23.0934350765
  C         1.4728526656       10.7207526830       23.0749568048
  C         1.9826153927       11.2982606057       20.9480426024
  C         0.9424542767       11.1320511755       24.2716719744
  C         0.4903866028       13.1026374439       25.2786241017
  H         2.6607982279       14.6473492800       22.1241047493
  H         2.0401077802       14.9056564584       23.8316345022
  C         3.6693025710       13.5290987813       23.5802412062
  S         1.8678114121        9.1586733606       22.4682285420
  C         2.0983631231        9.9082531256       20.9342677638
  H         1.9674511095       12.0101760875       20.2000172289
  C         0.5234861104       10.5151936043       25.4212999690
  H         0.3975087288       14.1586840660       25.2305581360
  C         0.1316789692       12.5369043151       26.4474398767
  H         3.9955898017       12.9072907282       22.8190904134
  H         3.4281032714       13.0060785037       24.5164127101
  C         4.7751993266       14.5766196977       23.9353195344
  C         2.6031194854        9.2117494523       19.7186707040
  C         0.1046545308       11.1627279738       26.6159200772
  H         0.5887498420        9.4086661441       25.4415543569
  C        -0.3548167426       12.9730365762       27.7001982216
  H         5.3206483964       14.2236342028       24.8251576331
  H         4.4075350671       15.4496586110       24.4545403041
  C         5.6089210316       15.0969274585       22.7824439086
  C         2.6899573835        7.8561913905       19.5679964966
  C         3.1721848429       10.0269573804       18.6373637563
  C        -0.3201459924       10.5311536533       27.9323929835
  C        -0.6332400497       11.8948524759       28.5402843362
  S        -0.5058575202       14.5119650214       28.4215279774
  H         6.2832357553       15.8835642492       23.1637153968
  H         5.0435137456       15.7101804077       22.0714784680
  C         6.4384822241       14.0643427236       22.1225714264
  N         2.4372172945        7.0387257115       20.6191443400
  C         2.9873203359        7.2605686952       18.3905022832
  C         3.6106470329        9.4961207357       17.4526371227
  H         3.0704673002       11.0741982209       18.7455261686
  C         0.7557305399        9.7377137743       28.6867345253
  C        -1.5158356066        9.5877944505       27.7680790314
  C        -0.9641685130       12.3969969136       29.8109516308
  C        -0.9541159094       13.7504501352       29.9419097670
  H         7.5192325022       14.2677309663       22.1969226297
  H         6.4228662104       13.1334134621       22.5675294047
  C         5.9364155946       13.8987947180       20.6332480517
  S         2.4172267066        5.5109524319       20.0197839929
  N         2.9051442913        5.9220910270       18.4767467522
  C         3.3998341544        7.9771227156       17.2118953089
  H         4.0257611663       10.1347103228       16.6685862896
  H         1.0185297695        8.8866336853       28.0752721424
  H         0.2587223925        9.3109266800       29.5946067562
  C         2.0907318300       10.4214129154       29.1950228507
  H        -1.1166469267        8.7784126938       27.1755778540
  H        -1.8922448537        9.2976156562       28.6805251293
  C        -2.6053417478       10.4157636976       27.1221407290
  H        -1.2635325598       11.6599517127       30.5981620976
  C        -1.2534852756       14.4905698807       31.2215522638
  H         6.2575468256       14.8290501790       20.1393527553
  H         4.8428155302       13.8332020401       20.6775751521
  C         6.4627496195       12.6680510790       19.8645501405
  C         3.6477601296        7.1392735440       16.0621690987
  H         2.4352177589       11.0231552062       28.4009087485
  H         1.8370824247       11.1925475536       29.9118940200
  C         3.1848016970        9.5061740345       29.6235104400
  H        -2.3116091141       10.7893982471       26.0981872970
  H        -2.9085013015       11.2866081471       27.7031990363
  C        -3.8551854418        9.6658740096       26.9661900329
  C        -1.3173126892       15.8574998030       31.4534155002
  C        -1.4226955775       13.6634829203       32.4516219984
  H         7.5357398265       12.5228262586       20.0321934496
  H         5.9462826669       11.7723893848       20.2095607076
  C         6.3611677522       12.7680381334       18.3660899611
  H         3.2737895988        6.1575914379       16.0674448937
  C         3.8112705339        7.5615408815       14.7859468467
  H         3.6025616582        8.8203255025       28.8881294578
  H         2.8082430979        8.8231152974       30.4161592713
  C         4.3363364486       10.1680057228       30.2632294367
  H        -3.6687970335        8.7613415155       26.3737591578
  H        -4.3180545177        9.3361651384       27.8836045032
  C        -4.8344244315       10.5745627646       26.0770057281
  N        -1.0687821311       16.8621603521       30.5693786629
  C        -1.6367255936       16.4526140862       32.6758385219
  C        -1.8297894597       14.2135966721       33.6234516899
  H        -1.1734799222       12.6094798978       32.4206431159
  H         5.4355740304       12.3767632016       18.0148617060
  H         6.3002899558       13.8287091528       18.0381753531
  H         7.2168774784       12.2973789173       17.8398806726
  S         4.0725042439        9.1568143313       14.3007102453
  C         3.8811336274        6.5089431239       13.7160148517
  H         4.4413465971       11.1984325778       29.9348389854
  H         4.2573197358       10.1789339202       31.3163432426
  C         5.6288520752        9.4937984266       29.9299379155
  H        -4.5002954259       10.6369260057       25.0718571248
  H        -4.8786850116       11.5945724751       26.4938881606
  C        -6.2663905448       10.0284346994       26.1534274771
  S        -1.0403156340       18.3118622276       31.2653274909
  N        -1.7128120935       17.8373933780       32.6003365748
  C        -2.0661835739       15.7171264721       33.7772146893
  H        -1.9207135775       13.6435603127       34.5414223047
  C         4.1825311247        8.4878273393       12.6194312792
  N         4.1625842835        7.1231276711       12.5767155749
  O         3.9103688184        5.3003009592       13.9523860698
  H         6.3334220447       10.3415691728       29.9160915876
  H         5.7561485328        9.1332034979       28.8815695002
  C         5.9039846795        8.3413470842       30.8962214808
  H        -6.3946294239        8.9699508959       25.8375821107
  H        -6.6604635233       10.1449993567       27.2268415816
  C        -7.2863946439       10.7275318140       25.3037441917
  C        -2.5728191902       16.4943995988       34.8300078234
  S         4.3848411365        9.4089156432       11.1471418040
  C         4.3118852311        6.3804469243       11.3355300307
  H         6.3116576843        8.7578121434       31.7961061413
  H         4.8828997087        7.9106568591       31.1914724618
  C         6.6792881647        7.1587972174       30.4540772275
  H        -6.7988667332       10.9218485207       24.3885493822
  H        -7.5508652528       11.6988341323       25.7899183500
  C        -8.4825424979        9.8215609684       25.0423263821
  H        -2.6695238454       17.5306026950       34.5991853582
  C        -2.8528796745       16.2058731537       36.1524430061
  H         4.9301101005        6.8167053796       10.5642675823
  H         4.7426535408        5.4019983633       11.5496954449
  C         2.8528449798        6.1890646613       10.8401699694
  H         7.6785814830        7.5708506425       30.2183568477
  H         6.1870764018        6.7302265308       29.5332247938
  C         6.9234002542        6.1504137191       31.5442116807
  H        -8.9561078430       10.3096983279       24.2674834966
  H        -8.1338878031        8.7976772379       24.7568747309
  C        -9.3008041851        9.6772629050       26.3042806809
  S        -2.8419393954       14.6296318221       36.8644788689
  C        -3.1055502660       17.3002426533       37.0694286522
  H         2.5864695146        5.1884473850       10.5152732591
  H         2.1271319795        6.3553815366       11.6121086443
  H         2.4950888084        6.8319962679       10.0303270929
  H         6.3173396133        5.2327129082       31.3929320299
  H         6.6186892751        6.6388733699       32.4814852789
  H         7.9117042197        5.8189564099       31.4790340926
  H        -9.4275208828       10.6307365384       26.7645751770
  H        -8.9948358445        8.8884043294       26.9984907448
  H       -10.3165188129        9.4697522130       25.9792176010
  C        -3.2976407776       15.4282760560       38.3628547545
  N        -3.4042671120       16.7855502147       38.2815845871
  O        -3.3029394596       18.4883106962       36.7699285590
  S        -3.6168872472       14.7336507034       39.9127816207
  C        -3.7506891148       17.6721977041       39.3700721940
  H        -4.1320919087       18.5650800134       38.9965058572
  H        -4.5603737434       17.2415002272       39.9801864452
  C        -2.5375764298       17.9620373810       40.3108432735
  H        -2.8259048675       18.2476274158       41.3040466198
  H        -1.9559783098       17.0774981344       40.4769718969
  H        -1.8217226717       18.6729052586       39.8872047944
