352
i=
  H         3.7480962520        3.7796021818       12.1326135307
  C         2.8209514880        3.1134338268       12.2824866034
  H         1.9601828832        3.7427170117       12.7080704908
  C         2.3124140455        2.5939808413       10.9283437188
  C         3.1656370213        1.9409516551       13.2021502013
  C         3.3369211254        2.7668503610        9.7501345353
  H         1.3938495741        3.1537320405       10.6550978255
  H         2.0452049822        1.5406523622       11.0526009478
  H         2.2303536317        1.6014237614       13.4857246036
  H         3.6681335877        2.4011711669       14.1016010944
  H         3.8881026065        1.2104402464       12.8075398634
  C         4.3098079566        1.6166200114        9.7147080855
  H         2.7735138062        2.8232186877        8.8506098957
  H         3.8650734842        3.6977085359        9.7712097539
  C         5.1774777905        1.6319561331        8.4788805146
  H         3.8034809359        0.7065011809        9.8398414585
  H         4.9373463968        1.7495057133       10.5747602466
  C         6.3759436923        2.5567680670        8.6975523608
  H         4.6596983446        2.0562989444        7.6398888101
  H         5.6231524532        0.6920699365        8.1912029637
  C         7.6119863507        1.7941714547        9.2387417835
  H         6.6389716617        2.9410349516        7.7339667979
  H         6.1180468089        3.4676361370        9.1359812214
  C         8.9038506460        2.6198103407        9.3108942436
  H         7.7906720928        0.8762081700        8.7045423250
  H         7.4985569500        1.4943077703       10.2949029193
  C         8.4831423512        3.9527723523       10.0201227071
  C         9.3245464610        3.3678205388        8.0825948223
  C        10.0430142871        1.8612291038       10.0788278892
  C         8.7519167531        5.0415365837        9.2618701910
  C         7.8999820564        4.3402005678       11.2698818785
  C         9.1764202998        4.7063900749        8.0149595889
  C         9.7980685360        2.7892442922        6.9308643417
  H         9.7150477531        1.3415508107       10.9591420874
  H        10.4714767658        1.1489535182        9.3891336860
  C        11.1536296396        2.8694455071       10.5666331343
  S         8.4522283136        6.5308609682       10.0417218163
  C         7.7778723894        5.7041478103       11.3649239295
  H         7.7461227904        3.6234079949       12.0968286317
  C         9.3625385881        5.3792158923        6.8863099271
  H        10.0219234960        1.7220367990        7.0447003310
  C        10.0243523552        3.5012880677        5.7846693686
  H        10.6794534232        3.6759091128       11.1809491301
  H        11.7486565675        3.3030970601        9.7025704428
  C        12.1737972693        2.2331644398       11.4430713706
  C         7.3563977055        6.4731949888       12.5924677737
  C         9.7519234132        4.8110866276        5.6881822904
  H         9.3326657247        6.4414154223        6.9504864485
  C        10.4113049902        3.1703425357        4.5126935086
  H        13.0885514473        2.7859264199       11.5290977292
  H        12.4681395366        1.3064336313       10.9196260340
  C        11.5887180045        2.0575559905       12.9617138157
  C         7.3626507608        7.8814970309       12.8260152013
  C         6.8432494844        5.6138264402       13.6793005789
  C        10.0513832373        5.6273179529        4.4399389914
  C        10.4922049861        4.3288256160        3.7298263669
  S        10.8647405771        1.7316828761        3.6842734081
  H        11.0147344173        2.8939144264       13.3686693948
  H        10.7698388418        1.3698104273       13.0275681517
  C        12.6897026054        1.8455694720       13.9554261503
  N         7.8745051767        8.8794991467       12.0011211971
  C         6.9000283981        8.3821485984       14.0456264001
  C         6.6924503204        6.1083057494       14.9626823387
  H         6.6229245970        4.5384544868       13.5494725210
  C        11.2983857963        6.5594122059        4.4688550325
  C         8.7870087677        6.2530558488        3.8187398107
  C        10.9487760226        4.0182494611        2.4062646949
  C        11.0749991007        2.6648608397        2.2344595227
  H        13.5082639733        2.5838520742       13.7599765619
  H        13.0941467373        0.8853829342       13.8824348794
  C        12.2829684469        2.1097980604       15.4229027175
  S         7.7324311299       10.3183434723       12.7543187376
  N         7.0525910242        9.7757949237       14.1791155359
  C         6.6837716269        7.5519371068       15.1852059209
  H         6.2966402832        5.3525397250       15.6905162538
  H        11.0837894856        7.4716556210        5.0867251281
  H        11.4112233391        6.9628270805        3.4503316499
  C        12.6042044088        5.9401641427        5.0604768657
  H         8.3062999866        6.9838318796        4.4504167767
  H         9.1280886600        6.7827815995        2.9214935810
  C         7.7283742683        5.2083721380        3.2560300803
  H        11.0551648026        4.8950885948        1.7490397679
  C        11.4203968682        1.9992616191        0.9662565088
  H        12.4459538961        3.1989265314       15.6082435142
  H        11.2120473349        1.9295096080       15.6914160304
  C        13.1152487270        1.3865040542       16.5004745109
  C         6.3673850907        8.2500028876       16.3949979244
  H        12.3084852805        5.2120994162        5.8230102639
  H        12.9876969824        5.3348168489        4.2673366160
  C        13.7336508617        6.7940050113        5.6182027927
  H         7.4472924103        4.3890437710        3.9650245330
  H         8.0443774921        4.7171361262        2.3080348867
  C         6.4886119809        5.9958402081        2.9221534801
  C        11.4675015432        0.6069547802        0.7397640143
  C        11.8501346731        2.8667079615       -0.2128357229
  H        14.0654047082        1.1067553199       16.0934139411
  H        12.6254993461        0.4861794301       16.8084232323
  C        13.5135146540        2.2870744317       17.6767342468
  H         6.0423243005        9.3164124831       16.3084915016
  C         6.2220017057        7.7450929643       17.6336074869
  H        13.3360333462        7.4028754715        6.4807837164
  H        14.0829135032        7.4312093329        4.8288528107
  C        14.8364721492        5.8580104227        6.1023484999
  H         5.6676244060        5.3571871830        3.2984302003
  H         6.4494082996        6.9315748775        3.5475389911
  C         6.3137255889        6.1524445924        1.4101719136
  N        11.1885602589       -0.3931179854        1.6834917976
  C        11.8628059546        0.0803447807       -0.4582179394
  C        12.2060111435        2.2872706285       -1.4608909602
  H        11.9230305748        3.8966855113       -0.1128029888
  H        14.5394326511        2.5693754936       17.8475632509
  H        13.1992595202        1.8276459090       18.6455065442
  H        12.9173211049        3.2239871379       17.7194215208
  S         6.0347174135        6.0919431574       18.0439554748
  C         6.2348472709        8.6617134087       18.7831553699
  H        14.4517387428        5.1932737507        6.8590705927
  H        15.2114341940        5.1934570413        5.3545060981
  C        16.0233060597        6.6097048002        6.6170144161
  H         6.3421274046        5.1702563601        0.8946322370
  H         7.0984852850        6.8089960653        1.0561312904
  C         4.9007208245        6.6991800248        1.0854693199
  S        11.7187608624       -1.7847617174        1.1995909752
  N        11.9644490826       -1.3165238139       -0.3648379494
  C        12.1862021282        0.8268432870       -1.6135686302
  H        12.5765593129        2.8726338142       -2.3130935719
  C         5.8397045098        6.6599333870       19.7388926458
  N         5.9387107325        7.9549352203       19.8892395745
  O         6.3287661492        9.8837724128       18.7130735219
  H        16.5202361653        7.2549482575        5.8216487524
  H        15.6555844175        7.2372513323        7.4167553013
  C        17.0547698035        5.4889520083        7.0581589902
  H         5.0553837008        7.0199183480        0.0692933519
  H         4.0903871257        5.9804828534        1.0423085461
  C         4.4438301473        7.8535448441        2.0260695718
  C        12.6493867971        0.0991345989       -2.7423202105
  S         5.4192307317        5.6655378648       21.1448826645
  C         5.9013460806        8.6149027210       21.1872070643
  H        16.6428118160        4.9010819631        7.9059424801
  H        17.2658196237        4.7945942158        6.2328895396
  C        18.4022850738        6.0451583108        7.6151761186
  H         5.2131510859        8.3388945947        2.5716425353
  H         3.8449849323        7.4121209310        2.8487569527
  C         3.7067656731        8.8865192957        1.2712269644
  H        12.6591446414       -0.9811919764       -2.6319918663
  C        13.1219722596        0.3806513329       -4.0006669964
  H         5.1402911662        8.1106347979       21.8430431871
  H         5.5202079693        9.6248974663       21.1267948190
  C         7.2539151140        8.5133116806       21.8917623238
  H        18.7827458702        5.5284385876        8.4970102312
  H        18.1747514330        7.0502479373        7.9300098101
  C        19.5389907935        5.9814001886        6.5704937241
  H         4.3394846339        9.3466672297        0.4643472408
  H         2.7650277176        8.5121804988        0.8083450854
  C         3.3559367683       10.0351724209        2.3044403418
  S        13.7884223837        1.8596360222       -4.5910148477
  C        13.3590575045       -0.7718071672       -4.9462675660
  H         7.2147258174        7.9972070441       22.8772637568
  H         7.8421054870        9.4150531674       22.0644388036
  H         7.9310942594        7.9991984460       21.3337478554
  H        19.4875164093        6.8503646589        5.8804653600
  H        20.4955209210        5.9643267644        7.1533973731
  H        19.5549857180        5.1214487809        5.9253005339
  H         2.5519414041       10.6863206086        1.9500464053
  H         3.0441272395        9.7173752462        3.2786032874
  H         4.2632027841       10.6959274448        2.4732718504
  C        14.2047380108        1.0510873475       -6.0279786649
  N        14.0320687601       -0.2985518026       -5.9916707924
  O        12.8921795194       -1.8679231227       -4.7611071152
  S        15.1290125311        1.7534543705       -7.3323533928
  C        14.1095407083       -1.0841564824       -7.1841383970
  H        14.1575052955       -2.0629015534       -6.7791351634
  H        14.9869668961       -0.7368627924       -7.7105099211
  C        12.7435923790       -0.9930061401       -7.9430451718
  H        12.2511479918       -0.0289699861       -7.8677538850
  H        12.0884877033       -1.7357463637       -7.5765495172
  H        13.0727439513       -1.2335688087       -8.9431553802
  H        -2.1645259570       12.2591059164       16.5761751318
  C        -2.7029876475       13.2651809066       16.5234078592
  H        -2.1062837144       13.8630203098       15.8613942276
  C        -2.8511531630       13.9866118301       17.8574262967
  C        -4.0157187484       12.9965636327       15.8462291733
  C        -3.2884687535       13.1632373639       19.0274237267
  H        -1.8419035095       14.3961204377       18.1133886953
  H        -3.4951692648       14.8416564008       17.6809376576
  H        -4.6284570005       12.5448800904       16.6054084953
  H        -4.4019749663       13.9620260238       15.4220845706
  H        -3.7935261996       12.3013299643       14.9701285076
  C        -2.1496258751       12.8823263198       20.0322048287
  H        -3.6638877382       12.1502875992       18.7302930866
  H        -4.0289052421       13.7924670323       19.5185114541
  C        -2.7191567881       13.0623162154       21.3783157142
  H        -1.7394476454       11.8584480844       19.8808565001
  H        -1.3966947573       13.6640150637       20.0161081468
  C        -1.6361245030       12.5046239123       22.3766036204
  H        -3.6278232204       12.4871372161       21.3948590727
  H        -2.8865439458       14.0736604528       21.7063662865
  C        -0.4589851001       13.4686657707       22.7431703305
  H        -2.2537674110       12.3110486452       23.2607145761
  H        -1.2741114152       11.5205189635       22.0073982507
  C         0.7270023484       12.7236073417       23.4021696717
  H        -0.0325482159       13.9124863823       21.8843123712
  H        -0.7287106299       14.3240715040       23.4493699734
  C         1.1310070944       11.4316662459       22.6432296130
  C         0.3727633110       11.9637551631       24.5959267337
  C         2.0192193344       13.6258118329       23.4307469399
  C         1.0786701478       10.3023158346       23.4445664877
  C         1.4005289641       11.1025947216       21.3024789325
  C         0.6156282672       10.6130079857       24.7062751415
  C        -0.1331592410       12.5386084965       25.7016737626
  H         2.1944479172       14.1357471123       22.4956022056
  H         1.9143478900       14.3447193744       24.2221209956
  C         3.3726171960       12.9139990918       23.7256660470
  S         1.5211572499        8.8060387808       22.6512233999
  C         1.7373310367        9.7784488055       21.1925674303
  H         1.4174024196       11.8553519730       20.5671800232
  C         0.3428792845        9.9146133109       25.8430645320
  H        -0.2513529889       13.6009974565       25.6358455314
  C        -0.3182551210       11.9068048032       26.8670653563
  H         3.6967973522       12.2796816633       22.8951710441
  H         3.2787518689       12.2968562574       24.5374561312
  C         4.6398775327       13.8526619890       23.9182879823
  C         2.2215455943        9.1043181532       19.9254900380
  C        -0.1983841528       10.5454724967       26.9984109784
  H         0.5454773685        8.8600130826       25.8575393764
  C        -0.8357875011       12.2830914008       28.1149337416
  H         5.4057045148       13.2880946351       24.4439049583
  H         4.3130082712       14.7210749156       24.5322295815
  C         5.2105867647       14.4128147804       22.6541653089
  C         2.3491131162        7.7164464756       19.6114232930
  C         2.6852684536        9.9498834042       18.8164024674
  C        -0.7124160172        9.8363332658       28.2923762294
  C        -0.9413567852       11.2075520207       28.9571078765
  S        -1.3164660386       13.7490546112       28.8058992859
  H         5.7494497670       15.3155039085       22.9439872935
  H         4.5073272142       14.7877213084       21.9242520302
  C         6.2158404429       13.4583729117       21.9958439695
  N         2.0287268640        6.6504276121       20.4740653128
  C         2.5932536516        7.2132068583       18.3237922207
  C         3.0572828206        9.4680731764       17.5532124935
  H         2.7358564480       10.9924079129       19.0045774202
  C         0.3594895999        8.9754789210       28.9245127244
  C        -1.9916379484        9.0646429095       27.9928243083
  C        -1.3702839067       11.6540734543       30.2312337569
  C        -1.4647407828       13.0364273137       30.3547739424
  H         7.1575582639       14.0670572520       21.8334779727
  H         6.3858939399       12.6286394023       22.7057792370
  C         5.6605206624       12.8579795112       20.6405127607
  S         2.0601308884        5.3194901366       19.7136576115
  N         2.4475861906        5.8019562880       18.2299135516
  C         2.9142354684        8.0252253381       17.2000900877
  H         3.4244325455       10.2357684324       16.9170696042
  H         0.8348207060        8.2559929475       28.2820814127
  H        -0.1920932172        8.4133865217       29.7120100520
  C         1.4845495953        9.8114423130       29.6140708478
  H        -1.6897148756        8.3638235086       27.3191615673
  H        -2.2591069517        8.5905275466       28.9054469921
  C        -3.1647045368        9.8163916215       27.4434448504
  H        -1.6027587439       10.8369279190       30.9295020326
  C        -1.8223737777       13.7843966880       31.6085385961
  H         4.6931475421       13.2918178445       20.3939444897
  H         5.7335058812       11.8272064072       20.7756234256
  C         6.4751964647       13.1967954902       19.3599197618
  C         3.1298018311        7.4184997784       15.9382360423
  H         1.8509304601       10.5658626878       28.9542907298
  H         1.1597262827       10.3904659943       30.4894545723
  C         2.6530125960        8.9564136978       30.1320129035
  H        -2.8516329402       10.2638775928       26.4436680359
  H        -3.3927492604       10.6655555942       28.0631259535
  C        -4.3212590678        8.9837242786       27.2244596859
  C        -1.8954528237       15.1984024274       31.7197558091
  C        -1.9846402757       13.0357652082       32.8456227974
  H         6.9340903132       14.1169234056       19.5297386578
  H         7.2672400585       12.4392241078       19.1661823054
  C         5.5856692007       13.2146156522       18.0697861302
  H         3.1671192767        6.3873288801       15.9356231078
  C         3.3300670222        7.9343735327       14.6651582324
  H         3.0096263226        8.4629911109       29.2806716459
  H         2.2614357383        8.1656924792       30.7562959254
  C         3.8149210400        9.6802522444       30.8205508812
  H        -4.0578027417        8.1829651590       26.5567162699
  H        -4.6587671584        8.6031108023       28.1392741629
  C        -5.5396689790        9.8597112341       26.8921867604
  N        -1.7017778998       16.0707279097       30.7052970982
  C        -2.3338706304       15.8185013915       32.8526636626
  C        -2.2937908765       13.6406994503       34.0722165348
  H        -1.9488337352       11.9840608281       32.7120993215
  H         5.9396202568       12.3536616247       17.4113435797
  H         4.5418599176       13.3154420560       18.0834417741
  H         5.9539675101       14.0287093501       17.4502013705
  S         3.3985831590        9.5584619664       14.3349134860
  C         3.4752380273        6.9116038820       13.5645284458
  H         4.0918310219       10.7057461109       30.4498115673
  H         3.6414439172        9.9282543432       31.8532050720
  C         5.0784726325        8.9087337072       30.6523219036
  H        -5.4924970465       10.8041696260       27.4233434633
  H        -6.5095248215        9.4542134022       27.1519049232
  C        -5.7409798379       10.1514458659       25.4223450043
  S        -2.0550439992       17.6151070764       31.1874531125
  N        -2.3771936749       17.2418936643       32.7292555717
  C        -2.6153704963       15.0988609014       34.0434252212
  H        -2.3482998946       13.1342596104       34.9879902567
  C         3.9240062990        9.0511469011       12.7229058962
  N         3.9298969288        7.6810209961       12.5024812655
  O         3.3120773486        5.6909975424       13.6703520372
  H         5.9474240548        9.4907292828       30.9445320278
  H         5.3234788177        8.6744917005       29.6329681711
  C         5.1033209075        7.6409734186       31.4986205614
  H        -4.9157713094       10.7516488101       25.0397241112
  H        -5.7615594599        9.2941161988       24.7361205259
  C        -6.8793623172       11.0775639380       25.1179518796
  C        -2.9304955235       15.7807361340       35.2729048869
  S         4.5554902712       10.0736390304       11.3980138906
  C         4.0971974380        7.0220265071       11.2142173656
  H         5.7847015762        7.8609118725       32.3073171366
  H         4.2153318227        7.4711332247       32.1148416383
  C         5.7382582455        6.4057272067       30.8261125266
  H        -6.7521881037       11.4214049658       24.1187244103
  H        -6.8028861409       11.9375362626       25.7993597947
  C        -8.2332954770       10.3252282186       25.1047646184
  H        -2.4663901967       16.7336382999       35.4041955335
  C        -3.5182551510       15.3361704406       36.4212843725
  H         4.8487019978        7.5005294536       10.5174224064
  H         4.5795928868        6.0274641472       11.2835066477
  C         2.7800101995        6.7153659868       10.5109495353
  H         6.7186146604        6.7201987798       30.3711468565
  H         5.0466373262        6.1210588684       29.9660847062
  C         5.9439058158        5.1539352919       31.7169792963
  H        -8.7454002173       10.5283699542       24.1619248197
  H        -8.1425407665        9.2358496903       25.0330965427
  C        -9.1355739731       10.7419421589       26.1581085685
  S        -4.3700449792       13.8163687975       36.6294240212
  C        -3.4855404620       16.2693120813       37.5562557300
  H         2.7096300189        5.6821239373       10.2437929741
  H         1.8617464043        6.9269338197       11.1538105474
  H         2.7259314277        7.1649497793        9.5309780364
  H         6.0704497049        4.4425441416       30.9595088774
  H         5.1740604932        4.7538832330       32.3830804226
  H         6.9113048937        5.2372899419       32.1449286511
  H        -9.2633495583       11.8636172382       25.9912996615
  H        -8.7577071799       10.5015977053       27.1233539857
  H       -10.1478740782       10.3702284223       26.0136895566
  C        -4.4527006920       14.4019397874       38.3494937901
  N        -4.1662898548       15.7184333503       38.5586819482
  O        -3.0494821899       17.4492745425       37.6039773042
  S        -5.0127950399       13.4603496671       39.7445538001
  C        -4.2566105606       16.4974998477       39.8434957940
  H        -4.6173079620       17.5361472521       39.5937075213
  H        -5.2366358181       16.2269182205       40.2943677615
  C        -2.9842615947       16.3490295709       40.5978217043
  H        -2.8765536926       15.2912429863       40.6922535658
  H        -2.1004639005       16.6978883227       39.9904339580
  H        -3.1042190732       16.7724376116       41.5992771544
