352
i=
  H         4.2019561189        2.0707491861       12.0826768854
  C         3.7679161739        3.0347732144       12.2122943959
  H         4.5345318411        3.7845512432       12.2263460733
  C         2.7883278824        3.3015293857       11.0586756908
  C         3.1010841805        2.9245831828       13.5968288964
  C         3.7569810966        3.5039135552        9.8680652516
  H         2.1579851139        4.2019912839       11.2711394216
  H         2.1670697552        2.4199886057       10.9533467307
  H         2.5040970282        2.0442366327       13.6137575341
  H         2.4859080739        3.7804559647       13.9145301452
  H         3.8452459142        2.7790563100       14.2940832769
  C         4.4613055690        2.3259007188        9.5032863763
  H         3.1199535299        3.7497948210        9.0190088219
  H         4.4286531410        4.3282792318        9.9491998045
  C         5.1225052303        2.5115313293        8.1412724363
  H         3.7118226803        1.5266499514        9.5375469876
  H         5.2974795564        2.1949358402       10.1912283240
  C         6.4290738175        3.2997323927        8.2448915006
  H         4.3963691959        2.9056759021        7.4453159895
  H         5.3959441050        1.5354729194        7.8245129253
  C         7.7533131864        2.3994879329        8.6704280329
  H         6.5887161450        3.7323482651        7.2345034492
  H         6.3875091501        4.0776696975        9.0208701274
  C         9.0925059657        3.2628387649        8.9220163578
  H         7.7826084863        1.6196740514        7.9284235278
  H         7.3945330805        1.9283680842        9.5592849389
  C         8.8146428128        4.5966108292        9.5738123337
  C         9.6908461231        4.0475558944        7.7454634462
  C        10.2771346494        2.5617650587        9.7566835756
  C         9.1953549449        5.7410909871        8.8976695220
  C         8.3055158847        4.8904862673       10.7848394300
  C         9.7566492106        5.3815723306        7.6794104216
  C        10.1235038601        3.4467278823        6.5611551431
  H         9.7608256933        2.1240133620       10.5940088186
  H        10.5029373685        1.7481167896        9.0315672952
  C        11.5437440213        3.4812610890        9.9503931040
  S         8.6383568762        7.1984419446        9.5843131225
  C         8.2141868681        6.2303388841       11.0189466124
  H         8.1432084024        4.1111354916       11.5017497957
  C        10.2007249200        6.0803310381        6.5653201083
  H        10.0775414265        2.3602293115        6.6199410523
  C        10.5253502359        4.1027505673        5.4435901018
  H        11.3394122421        4.4699504796       10.2827637279
  H        12.1099035000        3.4515037486        9.0300983356
  C        12.5279771699        3.0647224095       11.1173297400
  C         7.7946226791        6.8350392826       12.3664195906
  C        10.6410957364        5.4701248124        5.4090330149
  H        10.2170053130        7.1655462340        6.6479540267
  C        11.0554586328        3.8108526434        4.2154086896
  H        13.3403862594        3.8140473688       11.0020841745
  H        13.0244242199        2.0855962806       11.0031580102
  C        11.6843600886        3.1219584525       12.4559653224
  C         7.8836079565        8.2158846603       12.6965034483
  C         7.2888109005        5.9573545027       13.4867568260
  C        11.1157889439        6.1813924540        4.1917290644
  C        11.3479536981        4.8710250938        3.4401410194
  S        11.4541444464        2.3700006607        3.5157826498
  H        10.9276839411        3.8411651058       12.2282285820
  H        11.2841275750        2.1689091693       12.7463089691
  C        12.5066933805        3.5300930668       13.6618597210
  N         8.3133114559        9.1749358822       11.8256178371
  C         7.5837993868        8.7233312509       13.9482830507
  C         7.0252566244        6.4698449677       14.7116016201
  H         7.2092356384        4.8661853501       13.4051097066
  C        12.4427475294        6.9344031111        4.4002835219
  C        10.0355746901        6.9248214274        3.3998310720
  C        11.8361041553        4.5226028761        2.1454688189
  C        11.9565706446        3.1551602473        2.0472650569
  H        11.8689697153        3.9835510640       14.4008970395
  H        13.2129077654        4.3046888782       13.3349353226
  C        13.2860913803        2.3295947416       14.2396408835
  S         8.3282115157       10.6094228204       12.5364825076
  N         7.6791881735       10.1285530204       13.9333360902
  C         7.1819318134        7.8721775971       15.0211544575
  H         6.7848407618        5.7273339078       15.4724137283
  H        12.3918380407        7.6612483861        5.2384324903
  H        12.7242579211        7.5085449716        3.4923916145
  C        13.6534669141        5.9807942090        4.6906168518
  H         9.6476337674        7.7828317398        3.9558442482
  H        10.4851118966        7.5001526062        2.5624499500
  C         8.9083452306        6.0350933616        2.7470953938
  H        12.1823179059        5.3374538049        1.4651188660
  C        12.2960757824        2.4834620217        0.7388004267
  H        13.1266807480        1.4769208288       13.6107887762
  H        14.3660322603        2.6324425579       14.2817601998
  C        12.7305180874        1.9367464940       15.5759509819
  C         6.9503104257        8.4592757149       16.2693659306
  H        13.4446829897        5.5008372860        5.6584022110
  H        13.7243409821        5.3080733008        3.8917772331
  C        15.0169562215        6.5697772223        4.7781789073
  H         8.4241796089        5.4347478078        3.5066169834
  H         9.4037052305        5.3693378662        2.0698950701
  C         7.9156969418        6.9018983205        1.9704896791
  C        12.3200252629        1.0610727437        0.5892189382
  C        12.5043429765        3.2337175965       -0.4937616238
  H        13.1360548190        0.9087022026       15.6775386435
  H        11.6854536325        1.8747824870       15.6565162686
  C        13.2337291091        2.8770121597       16.7213334046
  H         7.1277268331        9.4956342354       16.2641240092
  C         6.6699610389        8.0448907378       17.5688401834
  H        14.8062659706        7.5810580646        5.0616770261
  H        15.4516156548        6.5877346770        3.7927848587
  C        15.8944044498        5.7875027168        5.8004384107
  H         7.6748675411        7.7811657294        2.5483644638
  H         8.2386743770        7.2118928351        1.0244578635
  C         6.7075810155        6.0640332980        1.7233291351
  N        11.9739923332        0.1941244225        1.6217809997
  C        12.5491952760        0.3407111196       -0.5995157353
  C        12.6853155478        2.5608075628       -1.7410165131
  H        12.5819918733        4.3012273068       -0.5223154365
  H        14.3616344201        2.7529745327       16.6716606568
  H        12.8292423612        2.5226291800       17.7062468538
  H        13.0741895542        3.9700552831       16.5656250786
  S         6.2874714282        6.4785570742       18.0773778458
  C         6.6264039232        9.1736110041       18.5675194429
  H        15.3635466847        5.5038807243        6.7484710091
  H        16.2302226695        4.8445428652        5.3600631275
  C        17.0759946306        6.6053661963        6.2474032213
  H         6.2075739269        5.6812518703        2.6164063414
  H         7.0401381319        5.1268312529        1.2516479012
  C         5.5712100557        6.8262378520        1.0048015673
  S        11.9615750689       -1.3518140481        1.0939111982
  N        12.4004205435       -1.0213215211       -0.4603423071
  C        12.8387976302        1.0925793225       -1.7693168260
  H        12.8357665929        3.0811303623       -2.6801975627
  C         6.1371569050        7.2747942557       19.6702989094
  N         6.2748292760        8.6072145624       19.7065646457
  O         6.7375779146       10.4041943099       18.3524055826
  H        17.4213383431        7.1174522896        5.3795067996
  H        16.9434038248        7.3485614299        7.0316995187
  C        18.2012346577        5.7338057000        6.8216444701
  H         5.8438287964        7.4119185577        0.1165534133
  H         4.9877486281        6.0907008388        0.5044846940
  C         4.6533605972        7.8342020301        1.7955535526
  C        13.0114427798        0.3867174120       -3.0466544696
  S         6.1831255991        6.4105678563       21.2463138208
  C         6.2228801875        9.4248417884       20.9078116945
  H        17.8837131392        5.2515000370        7.6713377679
  H        18.4169861107        4.9141794499        6.0841666072
  C        19.4332883511        6.6462262215        7.1257413033
  H         5.0433822149        8.0800205301        2.7675161874
  H         3.7030832917        7.3212444529        2.0223413624
  C         4.1984148995        9.1777032636        1.1619056612
  H        12.6196229709       -0.6558717143       -2.9426968381
  C        13.4292883705        0.7235574272       -4.3442475320
  H         5.4086450005        9.1166334796       21.6068355806
  H         6.0498431034       10.4731995628       20.6354423613
  C         7.5624784173        9.2847390307       21.5830116444
  H        19.8834866520        6.5015966054        8.1090005220
  H        19.1378938894        7.6916722267        7.1555853826
  C        20.4365005045        6.4356302662        6.0634011271
  H         3.7898160710        9.1159490787        0.1219088183
  H         3.3154736625        9.4795535477        1.7835433993
  C         5.2574213091       10.2413673001        1.1906628953
  S        13.9597421017        2.2980372697       -4.8386212449
  C        13.4598933001       -0.2703780695       -5.4717805363
  H         8.3745729255        9.1145108531       20.8890212939
  H         7.5972299278        8.5692735810       22.4146525107
  H         7.7657695033       10.2963790900       21.8874271374
  H        20.2691357143        5.5860414765        5.3656092163
  H        20.7373805565        7.3314788998        5.5727984944
  H        21.3654798265        6.1432161651        6.6039960716
  H         6.2888913974        9.8849629249        1.2353457276
  H         5.2187249712       10.8015757339        0.2262785353
  H         5.1289764998       10.9719998373        2.0051062798
  C        14.1559815762        1.6528965733       -6.4327133500
  N        14.0286696735        0.3235373349       -6.5358181924
  O        13.0245717659       -1.4310396165       -5.2447525832
  S        14.7559191916        2.4294997898       -7.8995774637
  C        14.0609418521       -0.3779661986       -7.7693314608
  H        14.3340851279       -1.3432244474       -7.4991240543
  H        14.8971167455       -0.1766932625       -8.4637599188
  C        12.7513341918       -0.3919985046       -8.5516350598
  H        12.9094062497       -0.3555345975       -9.6664920395
  H        12.1687274319        0.4879396935       -8.2689668260
  H        12.2240812856       -1.2889766150       -8.2410360473
  H        -2.7738908472       15.2420345812       15.5425765914
  C        -2.8603922525       14.2264629127       15.8978436881
  H        -3.8617794202       14.2688304250       16.3062995513
  C        -1.8306247148       14.0246475640       17.0728271339
  C        -2.8033907246       13.2974701737       14.6789097221
  C        -2.5258420991       14.0375650768       18.3946484050
  H        -1.2510968503       13.1451956152       16.8463332558
  H        -1.1701140088       14.8272764101       17.0603822495
  H        -2.4966969403       12.2909412269       15.0672469730
  H        -3.7864011881       13.1948152709       14.3288856368
  H        -2.1437142794       13.6314248475       13.8858682212
  C        -1.5329032290       13.5119759824       19.4756925628
  H        -3.3130657123       13.3628594051       18.3726811721
  H        -2.8858787779       14.9825950911       18.6560553506
  C        -2.0750074903       13.7170479175       20.9630031391
  H        -1.2679787051       12.4341907593       19.2809115152
  H        -0.5965272449       14.0796334783       19.3778332204
  C        -1.0949235008       13.1579139998       22.0362122883
  H        -3.0155225964       13.1565092380       21.0726711747
  H        -2.2591967920       14.7278705978       21.2554580771
  C         0.1452708513       14.0410521157       22.2512796424
  H        -1.5106237696       13.0214826268       23.0660651500
  H        -0.7127832592       12.1906594323       21.6498181841
  C         1.2625420756       13.3537828692       23.1341758053
  H         0.5081037582       14.2111132694       21.3162721900
  H        -0.1419359821       15.0164135186       22.6560623791
  C         1.6582312613       12.0902986538       22.4094804808
  C         0.8506519673       12.6620603187       24.3795940136
  C         2.4919571940       14.2968859495       23.4737029091
  C         1.5105882715       10.9928554113       23.2443227964
  C         2.2396284467       11.7240065228       21.1573424385
  C         0.9633392765       11.3338689657       24.4538484960
  C         0.3157899486       13.1993608510       25.4813062533
  H         2.6722959319       15.0138418528       22.5856613739
  H         2.4415899855       14.9665855038       24.2855301505
  C         3.8404985737       13.4695770817       23.6395823732
  S         1.9630098010        9.5010690992       22.5840760830
  C         2.4802409890       10.3505246677       21.1097211977
  H         2.3879819110       12.4706215878       20.3794917175
  C         0.5183022947       10.6982876060       25.5796602306
  H         0.1771475279       14.2584867096       25.4235311821
  C        -0.0683631365       12.6268500836       26.6756874611
  H         4.0960784229       12.7340809286       22.8693689723
  H         3.6455391381       12.8076752973       24.5191978168
  C         5.0917834776       14.3439533170       23.8471579253
  C         2.9857305508        9.6301564420       19.9518564927
  C        -0.0125804361       11.2726049215       26.7054513005
  H         0.6646998632        9.6091542401       25.6858174844
  C        -0.6305146231       13.0095786914       27.8995612252
  H         5.9411600308       13.9604589150       24.4683577951
  H         4.9222278291       15.2425528010       24.4034736117
  C         5.6936759245       14.8414696810       22.5052107402
  C         2.7777571634        8.2399137183       19.6851895820
  C         3.4479542919       10.3977716744       18.7658130021
  C        -0.3663287533       10.5081675728       27.9433418405
  C        -0.7954241343       11.8897224707       28.6966130609
  S        -0.9312244461       14.5059181816       28.6987295398
  H         6.1325830603       15.8340554416       22.5478273562
  H         4.8996867132       15.1250570058       21.7961466176
  C         6.5794282904       13.8982364430       21.6821398589
  N         2.4399342784        7.2996464468       20.6522477413
  C         3.0307002760        7.7837708835       18.3779888628
  C         3.6473294367        9.9036829145       17.4841063798
  H         3.8350728789       11.3844570895       18.9746922700
  C         0.7639800226        9.5814896914       28.6150561460
  C        -1.6727855583        9.7575721918       27.6547913049
  C        -1.2438712405       12.2215921556       30.0088265067
  C        -1.2985101241       13.6264478843       30.0966928323
  H         7.6369098423       14.0310582075       21.8834299803
  H         6.3231202663       12.8375794090       21.9512228634
  C         6.2481056664       14.0049421236       20.1534224628
  S         2.3784292729        5.8373346316       19.8774927440
  N         2.7832663911        6.4057289065       18.3421078989
  C         3.3756615713        8.5296004799       17.2153404065
  H         3.9977963074       10.5625240173       16.7462606563
  H         1.1499483399        8.9397257168       27.8067743626
  H         0.2920345626        8.9287345117       29.3492365474
  C         2.0952672579       10.3573791002       29.1445089279
  H        -1.5314849183        8.9117307493       26.9081735315
  H        -1.8315481303        9.2037828816       28.5115944627
  C        -2.8761576081       10.5588251598       27.2213021622
  H        -1.3731207549       11.4744397291       30.7987297432
  C        -1.6660118017       14.3417273536       31.3238618411
  H         6.2271048306       15.0535065726       19.8420040323
  H         5.3639954485       13.4699030940       19.9757638321
  C         7.3712806243       13.4159725787       19.2594102602
  C         3.5593812057        7.8149008623       16.0086405667
  H         2.4698012928       11.0143585871       28.4023696628
  H         1.7723565993       11.0141754601       29.9470966816
  C         3.2326718909        9.4341710969       29.4668297418
  H        -2.6128401577       11.2291178342       26.4235881388
  H        -3.1865941246       11.2715795753       27.9673893484
  C        -4.1857465813        9.7270723152       26.9040768689
  C        -1.7828980096       15.7602612596       31.4153422929
  C        -1.8552037507       13.6112989368       32.5752679259
  H         8.1988749716       14.0968113138       19.5313478159
  H         7.6993810672       12.4569108893       19.6293781403
  C         7.0903149366       13.4463575187       17.7460780555
  H         3.2669939433        6.7958344759       16.0337888220
  C         3.8572761731        8.2144202975       14.7048894533
  H         3.1654561766        8.8137716075       28.6288440478
  H         3.0335282187        8.7995609967       30.3007303109
  C         4.6559508576        9.9939962966       29.4893908192
  H        -3.9667346210        9.2458727781       25.9783151010
  H        -4.2736921837        8.8599450497       27.6472562166
  C        -5.4292908424       10.6432554899       26.7428847231
  N        -1.4661551550       16.7657266372       30.3972462632
  C        -2.1242193309       16.3581678566       32.5631467706
  C        -2.2022731553       14.2232367235       33.7329454702
  H        -1.5633093829       12.5951822704       32.6742862134
  H         7.1984866208       14.4396870912       17.4036560475
  H         7.7271609240       12.8932806429       17.0916595300
  H         6.0493212086       13.1676324416       17.5538919143
  S         4.1974520979        9.7945203032       14.2898880190
  C         3.9398253186        7.2276061994       13.6267746336
  H         4.5531685641       10.7801870734       28.7475670037
  H         4.7758905174       10.4321608805       30.4943798255
  C         5.8104094756        9.0368370904       29.3147880404
  H        -5.1748840422       11.3257259111       25.9130606613
  H        -5.6117122636       11.4078470579       27.5167142375
  C        -6.7769892159        9.9342144131       26.3671988620
  S        -1.6269480150       18.2540421524       31.0251864322
  N        -2.2548085812       17.7741324038       32.4510418701
  C        -2.4553223366       15.6410127895       33.7507556838
  H        -2.3012691367       13.5999439119       34.5983880202
  C         4.3972145200        9.2288707522       12.6783893445
  N         4.2879096953        7.8988508559       12.5190076229
  O         3.8057326705        6.0289146844       13.8120150813
  H         6.5941827533        9.6962455856       28.9601990757
  H         5.7089700870        8.5040020305       28.3869079298
  C         6.1942613034        8.1469149367       30.5137249484
  H        -6.5434611811        8.9977720783       25.7814112630
  H        -7.3748970432        9.8689651993       27.2764165389
  C        -7.5371981210       10.7844685573       25.3898557145
  C        -2.7948481860       16.4455960226       34.9012888704
  S         4.8702071401       10.2582556705       11.3314105797
  C         4.4013459674        7.2109173579       11.1907725647
  H         7.2349500532        8.0178927403       30.3406981562
  H         5.9532458802        8.7044072649       31.3772476416
  C         5.4625775810        6.7644002751       30.4891734159
  H        -6.9055197312       11.0789442254       24.5745359249
  H        -7.8756436010       11.6955690133       25.8344277284
  C        -8.7973356528       10.1167392825       24.9496118080
  H        -2.5238702840       17.4396821166       34.9422504979
  C        -3.4383521730       16.0283016552       36.0270966691
  H         5.2574389373        7.5643928205       10.6677271073
  H         4.6481476671        6.1512716472       11.3471744652
  C         3.0866397315        7.4028950830       10.4544658139
  H         5.3815133413        6.3875633305       29.4743285891
  H         4.3991267536        6.7995814219       30.7949782848
  C         6.2270531032        5.7451548981       31.3384884013
  H        -9.0990572963       10.5403095771       24.0356282231
  H        -8.5533701764        9.0632650556       24.6875576047
  C        -9.9132479370       10.0470785356       26.0162112933
  S        -4.2147651924       14.5023759455       36.2122216520
  C        -3.4935945855       17.0128306882       37.1253091830
  H         3.0407662550        6.5599479854        9.7838756171
  H         2.2973876079        7.2730424492       11.2153706261
  H         2.9680048970        8.3840740059        9.9841207238
  H         6.4948026888        6.1863654769       32.2974425312
  H         7.1095629650        5.4735239593       30.7708823573
  H         5.7046397767        4.7615077217       31.4359064808
  H        -9.4271464257        9.7810261612       26.9227786263
  H       -10.6551149975        9.2880051905       25.7369223379
  H       -10.4391349874       11.0185571332       26.0400800028
  C        -4.4283473703       15.1275530905       37.8443431531
  N        -4.1304159326       16.3687337770       38.1069097637
  O        -3.0180765259       18.0960592643       37.1366776109
  S        -5.2059870076       14.1857098107       39.1865526545
  C        -4.2380016837       17.0567060859       39.4175102968
  H        -4.2251778805       18.1608818820       39.2629498852
  H        -5.1707659359       16.7982499275       39.8419685016
  C        -3.1348219148       16.5038222758       40.3155072774
  H        -2.2029777488       16.8925637424       40.0058975266
  H        -3.2222326066       16.9541553191       41.2640547255
  H        -2.9673774971       15.4611732056       40.4392879371
