352
i=
  H         4.1462807653        0.9612565572       12.4224162825
  C         3.8514923807        2.0056365679       12.4018975051
  H         4.7455672056        2.6343715850       12.2881290311
  C         2.8683529701        2.1137084058       11.2054654809
  C         3.2435155972        2.1150501569       13.7148424465
  C         3.6096781524        2.5413008291        9.9509038074
  H         2.0829097241        2.8385544714       11.4829647658
  H         2.4006598854        1.1324151696       10.9055937576
  H         3.0703167884        1.1476941954       14.1590539423
  H         2.3951498924        2.8156883033       13.6944050214
  H         3.9861250111        2.4969847177       14.4456345591
  C         4.4772206028        1.3939796272        9.3531692990
  H         2.8601967621        2.9348102914        9.3130547483
  H         4.2067074846        3.3814474590       10.2819113504
  C         5.3395649605        1.8019082439        8.0989981414
  H         3.9926080935        0.4038071965        9.1955706932
  H         5.1842093343        1.1915374958       10.1272651638
  C         6.5489370258        2.6091785266        8.4345881092
  H         4.6044003319        2.3688317655        7.4641349690
  H         5.4765651432        0.8142749159        7.6155415280
  C         7.7261796357        1.7546914479        8.8317491007
  H         6.6627711309        3.1844318573        7.5043729238
  H         6.2587584262        3.1994736578        9.2541805872
  C         8.9649735688        2.6343364611        8.8956688233
  H         7.9004310777        0.9748963397        8.0161939968
  H         7.5365685380        1.3014440619        9.7935250074
  C         8.7189157303        3.9920476483        9.6168631617
  C         9.2963634336        3.3087359560        7.6213124480
  C        10.1137147175        1.8781409169        9.6952468970
  C         8.8802448940        5.0743665962        8.8009720314
  C         8.2564386655        4.4374008491       10.8589123762
  C         9.3688787369        4.6502936522        7.5689649657
  C         9.8714844550        2.6307529775        6.5479064384
  H         9.7435459418        1.3351662704       10.5526388181
  H        10.4617893634        1.1876713270        8.9401228321
  C        11.3120502428        2.7499099662       10.1440517683
  S         8.5526307348        6.6441586610        9.4454151874
  C         8.1944562993        5.8194534069       10.9188106556
  H         8.0397750149        3.7128487051       11.5944137805
  C         9.8870953288        5.2208157381        6.4228610810
  H         9.7886408458        1.4885652125        6.6578645614
  C        10.4260027217        3.2275886173        5.4793018235
  H        10.9321621432        3.6282124576       10.5873334066
  H        11.8314693856        3.0848435533        9.3238731440
  C        12.4008969023        2.1032342572       11.0067423879
  C         7.7028469087        6.5513191281       12.1017537936
  C        10.4853670432        4.5770521209        5.3517290153
  H        10.0146668271        6.2348086966        6.3115917527
  C        10.8806345372        2.7341155574        4.2599511030
  H        13.2431132514        2.8442770258       10.8386578520
  H        12.6957179039        1.1284826648       10.5582487918
  C        11.9638069472        1.9138611725       12.4278834263
  C         7.7067682922        7.9837747067       12.3036886006
  C         7.4122596023        5.7971526200       13.3809334751
  C        10.8989457079        5.2212452750        4.0582715582
  C        11.1935589101        3.8329183329        3.4225915642
  S        11.1355676900        1.2864351586        3.4353745054
  H        11.3458424916        2.7340212019       12.8190319311
  H        11.5369193724        1.0038463723       12.5739572036
  C        13.2074615615        1.7782976357       13.3854769257
  N         7.9456135573        8.9414054748       11.3754870336
  C         7.4951584296        8.5162754628       13.5877950899
  C         7.1303158873        6.3995863123       14.5639163990
  H         7.5061540632        4.7153632094       13.3769926850
  C        12.1495986592        6.1468339348        4.2762691488
  C         9.7781300902        5.9202069292        3.2625539722
  C        11.5577476910        3.4668463251        2.0891871373
  C        11.6259313003        2.0950586899        1.9890177047
  H        13.7927900415        2.6394475815       13.6308203604
  H        13.9174666490        1.0796461198       12.8945205044
  C        12.8366625519        1.1809266999       14.7746803185
  S         7.8873506001       10.4393779882       12.0047189961
  N         7.5518818150        9.9269035094       13.5883780375
  C         7.2326635229        7.7801216439       14.7994050784
  H         6.9026665066        5.7018401970       15.3754378648
  H        11.8750998887        7.0189853074        4.9074502268
  H        12.4670923607        6.5739168661        3.3249276144
  C        13.3789060074        5.4713355526        4.8374251281
  H         9.5916794977        6.8382303141        3.8597943551
  H        10.0568821286        6.2933335022        2.2617402010
  C         8.5259336800        5.1218314858        2.9797326784
  H        11.5771296103        4.2271130441        1.3230487440
  C        11.9899277000        1.3893905225        0.7633641387
  H        11.9661826430        0.4778250752       14.7282240518
  H        13.6922987242        0.6669560699       15.1138117471
  C        12.5154671489        2.2969030099       15.8001721951
  C         7.1126747967        8.4143916531       16.0585333408
  H        13.1745060532        4.9281833367        5.7333746730
  H        13.6895705234        4.7149831868        4.0746351851
  C        14.5542167594        6.3822984585        5.1823282990
  H         8.1671774501        4.7146866487        3.9372165913
  H         8.7173697552        4.3053310134        2.2934816040
  C         7.3205438648        5.8884452623        2.4500559276
  C        12.1115265452       -0.0192702631        0.6453024852
  C        12.1708510399        2.2046102231       -0.4438384737
  H        11.6601230133        2.0764191294       16.3924245156
  H        12.2930870621        3.2275221847       15.3566555273
  C        13.7232881161        2.4805747965       16.7318411493
  H         7.5103697940        9.4199246300       16.0018676648
  C         6.7649260446        8.0164290601       17.3280572666
  H        14.2224310661        6.9457897354        6.0361877821
  H        14.9481339528        7.0678619188        4.3996036233
  C        15.7582127423        5.5598936404        5.5185597220
  H         7.0392243190        6.7172494661        3.0516425017
  H         7.5972847404        6.2110082144        1.4661618819
  C         6.1085638979        4.9713001470        2.3164754537
  N        11.7593719642       -0.9355320913        1.6297409611
  C        12.4348974077       -0.6181767664       -0.5751675204
  C        12.6055907700        1.5819512029       -1.6021285661
  H        12.0446075530        3.2888641886       -0.4268885130
  H        14.7088871778        2.2737305968       16.2063122115
  H        13.4950555056        1.7581074166       17.4982694505
  H        13.8368305327        3.5462872506       17.0896922239
  S         6.4232129190        6.4152407316       17.7339830110
  C         6.7151291193        8.9871269251       18.4510795033
  H        15.3849882179        4.6156202086        5.8430499565
  H        16.4343834002        5.4367671879        4.6906422637
  C        16.5803563271        6.1336942372        6.6373062746
  H         5.6337471790        4.8725793747        3.3358795357
  H         6.3998193815        3.9693782724        2.1744316828
  C         5.0587412337        5.3679683595        1.2976281168
  S        11.9416446739       -2.4476500090        0.9567321395
  N        12.5363359555       -2.0411181059       -0.4647950577
  C        12.7295352151        0.1296120900       -1.7217827829
  H        12.7418928786        2.1973356359       -2.4585061709
  C         6.1736740150        6.9948273452       19.3567536338
  N         6.3094788379        8.3415271205       19.5606009202
  O         6.9461101087       10.1766557135       18.2717568302
  H        16.9322519959        7.1762741573        6.4349898989
  H        16.0129149026        6.1981923861        7.5056797713
  C        17.7591557846        5.1272898370        6.7823621386
  H         5.6658650795        5.4270722517        0.4197837520
  H         4.3546704563        4.5783466801        1.1630362142
  C         4.2506182899        6.6197943581        1.6656806882
  C        12.9490082525       -0.6416019899       -2.8943663648
  S         5.8336467442        5.8414713143       20.6895035900
  C         6.2314487740        8.9169880848       20.8867033012
  H        17.4114344602        4.1493023237        7.0889781730
  H        18.3127372190        5.0005564084        5.8980370957
  C        18.8247632648        5.7736858844        7.7162548454
  H         4.5817211772        7.0867821569        2.6173143282
  H         3.1794327126        6.3198264457        1.7758030591
  C         4.2169097676        7.7095144257        0.6189118818
  H        12.6784471537       -1.6746849752       -2.8389739429
  C        13.4613908379       -0.2164656548       -4.1411080396
  H         5.4367388973        8.4820412985       21.5102665802
  H         5.9653627640       10.0096815351       20.6790048160
  C         7.5409220999        8.8091066036       21.6930553819
  H        19.2062615488        5.0921315727        8.5284502194
  H        18.4894468538        6.6017259856        8.4012269142
  C        20.0780685552        6.0943206082        6.8709388357
  H         5.3153181479        7.8871431731        0.4461003690
  H         3.8634361652        7.4105208640       -0.3077532392
  C         3.5922478712        8.9841353897        1.1580370432
  S        14.0705812427        1.2477329776       -4.5701827775
  C        13.6125038684       -1.2707206906       -5.1788386779
  H         7.4331569236        8.1591913352       22.5720473823
  H         8.0296729303        9.7346296293       21.9751176156
  H         8.2989515889        8.3312988146       21.1489184102
  H        20.7909336523        6.5803191532        7.5184478582
  H        20.5119227379        5.1479130935        6.3827459116
  H        19.8787862908        6.7532589417        6.0258921279
  H         2.7409569735        8.7234900103        1.8050960861
  H         4.2692366488        9.5312277501        1.7819049403
  H         3.1619421642        9.7526705667        0.5208841302
  C        14.6003694529        0.5754427970       -6.1140434827
  N        14.2783727162       -0.7228816743       -6.2294283711
  O        13.2281665051       -2.4278788093       -5.0693269972
  S        15.1570415924        1.5162001945       -7.5609245262
  C        14.4309746816       -1.3873107741       -7.5374209471
  H        14.5518720412       -2.4598914796       -7.4920033951
  H        15.4187564161       -1.0884466064       -7.9694738685
  C        13.2798291534       -1.0723796623       -8.4966154232
  H        13.4383379616       -0.6859666459       -9.4931009567
  H        12.6219798455       -0.3951535577       -7.9421507104
  H        12.6899976144       -2.0180101865       -8.6361452243
  H        -3.6415848351       14.2518437780       15.7950501938
  C        -3.3640184738       13.3076626992       16.1999583679
  H        -4.2415328711       12.7371729334       16.5187872282
  C        -2.2861357526       13.4438922621       17.3121142656
  C        -2.9084204605       12.5784376177       14.9856362722
  C        -2.7598340134       13.3629968021       18.7711928161
  H        -1.6340463420       12.6268752387       17.1408647173
  H        -1.7030249271       14.3715825799       17.0630751616
  H        -2.1262280339       11.7846524630       14.9901958656
  H        -3.7068953356       12.1756340713       14.4713915928
  H        -2.5442077378       13.3318163422       14.2717885749
  C        -1.6692686465       13.0764594648       19.7903933104
  H        -3.6029554191       12.7168150602       19.0341663112
  H        -3.1120896398       14.4131281311       18.9977673808
  C        -2.1644094902       13.3372061826       21.2603324086
  H        -1.2849427663       12.0906424293       19.7479999183
  H        -0.8955359181       13.7766014351       19.5678034016
  C        -1.1225233796       12.7737976623       22.2962567107
  H        -3.1180684245       12.8556229624       21.3678261894
  H        -2.3478489179       14.4189701969       21.3888620425
  C         0.0892547590       13.6064094583       22.4646267914
  H        -1.4830810461       12.4604580135       23.2588371240
  H        -0.8939773492       11.8778671233       21.8006941518
  C         1.1831479985       12.7603504589       23.1039888052
  H         0.4287282168       13.8788079415       21.4702824113
  H        -0.1468785731       14.4629479024       23.0516269426
  C         1.5537600333       11.4512222975       22.4258952604
  C         0.7326446694       12.0675598582       24.3513210614
  C         2.4230068703       13.6055261055       23.3375125821
  C         1.3563747080       10.3148033026       23.1864664327
  C         2.2026123116       11.0735427797       21.2289578116
  C         0.8286855412       10.6698359676       24.4408439645
  C         0.2525302110       12.6263778385       25.5073745851
  H         2.7060649863       13.9942748036       22.3992445722
  H         2.1470776068       14.4538098764       24.0278562715
  C         3.6470885464       12.9005487456       23.9433393354
  S         1.6684928087        8.8082546097       22.4183619336
  C         2.2602750433        9.6707521067       21.0721703781
  H         2.4927386702       11.7828467103       20.5470488887
  C         0.5233658000       10.0913913692       25.6470977184
  H         0.1315492374       13.6662742988       25.4081685539
  C         0.0016232262       12.0675293216       26.7066311694
  H         4.0254926110       12.0200060160       23.3851763317
  H         3.3796420838       12.5097219433       24.9566122517
  C         4.8446510108       13.8234080973       24.1367223380
  C         2.7414130034        8.9700747439       19.8449434641
  C         0.0555169085       10.7491544630       26.8431012660
  H         0.5334032822        8.9721934343       25.6748084654
  C        -0.3928087338       12.5338054845       27.9680337532
  H         5.7401897796       13.1933010856       24.3275416769
  H         4.7979526715       14.2845811224       25.1452077007
  C         5.1328270258       14.7064164183       22.9166213915
  C         2.7803708593        7.5301471853       19.6220882342
  C         3.0254025155        9.7881072614       18.6937404851
  C        -0.3430398157       10.1384228002       28.2071173197
  C        -0.5629378688       11.5038057105       28.8533957975
  S        -0.6604926435       14.0996007053       28.6630298634
  H         5.7794211458       15.4884957470       23.2809496408
  H         4.2602794784       15.1830348931       22.5844158664
  C         6.0428750439       14.0417088076       21.9294941358
  N         2.3714987962        6.5850888606       20.5000039301
  C         3.0949134981        7.0319580303       18.3682718759
  C         3.1915911203        9.2145374905       17.3895277383
  H         3.0697938076       10.8266336312       18.8054015163
  C         0.8265152048        9.2835020527       28.7080535068
  C        -1.6319793370        9.3295959314       28.2220529994
  C        -0.9079072096       11.9625634791       30.1464364611
  C        -1.1140268140       13.3540810646       30.1613716543
  H         6.8001273113       14.8088368108       21.5538905308
  H         6.6161389620       13.1877485622       22.4350411089
  C         5.2723321360       13.4463627059       20.7602054301
  S         2.4792735789        5.1217780819       19.7958507756
  N         3.0250041658        5.6357714690       18.3817204734
  C         3.2819725088        7.7663985778       17.1814372249
  H         3.3321357024        9.8935794441       16.5396750607
  H         1.0231510443        8.4757812242       27.9772080530
  H         0.4372890507        8.8066792159       29.5955260285
  C         2.1335057497       10.0436091136       29.0993051566
  H        -1.4803993445        8.3942768568       27.9280730584
  H        -2.0790335019        9.3240696638       29.2067051468
  C        -2.7658952104        9.9881571625       27.4019594986
  H        -0.7576179700       11.2531385470       30.9637187213
  C        -1.3886662228       14.1787676404       31.4273227353
  H         4.4199346912       14.0968867696       20.6197267558
  H         4.8744206538       12.4662431816       20.9481855285
  C         6.2073021281       13.4018341475       19.5318892152
  C         3.5961484270        7.1234759325       15.9152528810
  H         2.6608355131       10.4743755301       28.2728301915
  H         2.0226418837       10.9251933344       29.7129254501
  C         3.1323634490        8.9706549884       29.6920985704
  H        -2.4407770519       10.3745402142       26.4072703200
  H        -3.0902210841       10.8179111108       27.9678261852
  C        -4.0080203015        9.1859944165       27.1791885886
  C        -1.5834104052       15.5960262695       31.5342920613
  C        -1.6166317246       13.3940933757       32.6889601807
  H         5.7752202203       12.6218265348       18.8692405455
  H         6.2121091536       14.3779407454       18.9696338918
  C         7.6023441009       12.8557154731       19.7388795259
  H         3.4412497919        6.0288958506       15.8830030127
  C         3.9138314851        7.5775540890       14.6231640264
  H         3.3843341512        8.3287966871       28.8594212228
  H         2.6105010196        8.4034732594       30.4781942660
  C         4.4523129985        9.6582062326       30.3103231749
  H        -3.8383115193        8.4946143933       26.3756862140
  H        -4.2979596379        8.6215311294       28.0314653527
  C        -5.0216198144       10.2457725936       26.7860949380
  N        -1.2994701329       16.4793716593       30.5312937978
  C        -1.8836850504       16.2098361898       32.7666940412
  C        -1.9728513987       14.0953119058       33.8405009307
  H        -1.4802168397       12.3752317825       32.7389544011
  H         8.0078687411       12.6181106580       18.7981121837
  H         8.2661350645       13.5358319938       20.2444860495
  H         7.6998554778       11.9166716582       20.2917982648
  S         4.0759913652        9.2256213674       14.0417490632
  C         3.8983210073        6.5276618546       13.5496258654
  H         4.8255066956       10.5580574166       29.8494334514
  H         4.1215984321       10.0366062979       31.2437835412
  C         5.5460793116        8.5684570399       30.4346695012
  H        -4.5106947714       10.8832092634       26.1141154858
  H        -5.2906699853       10.8438341464       27.6618598521
  C        -6.2274098510        9.5929501644       26.1412354778
  S        -1.3958017705       17.9924426266       31.1247337280
  N        -1.7940555841       17.5815928487       32.6769419444
  C        -2.1301375713       15.5594006946       33.9417950810
  H        -2.0688274748       13.4782663150       34.7042146256
  C         4.2986786126        8.4463862991       12.4619717233
  N         4.2327635807        7.0779128668       12.3882139076
  O         3.7198229382        5.3305168471       13.7370198645
  H         6.5034655182        9.0758677188       30.4619538265
  H         5.6255295984        8.1059932420       29.4084106420
  C         5.5205450373        7.5976227106       31.6100410491
  H        -5.7824170071        9.0313237353       25.3461100413
  H        -6.8114214647        9.0948567360       26.8727587163
  C        -7.1743091166       10.5898913144       25.3774865641
  C        -2.3548035572       16.3393112013       35.1393137981
  S         4.5686573841        9.3566499125       11.0430154615
  C         4.2778044174        6.2481350950       11.1906735571
  H         6.2554526950        7.8778632590       32.3024993529
  H         4.5343753746        7.7615771184       32.0697869300
  C         5.7705403021        6.1481696673       31.1009596145
  H        -6.7555865341       11.0258238456       24.5594583730
  H        -7.2783957030       11.3937260663       26.0993624340
  C        -8.3981520114        9.7701891189       25.0175846642
  H        -2.1408602345       17.4480082060       35.1039652755
  C        -2.8407069934       15.9420927833       36.3385657635
  H         4.9756803627        6.7136247726       10.5345137950
  H         4.6779334511        5.2656698554       11.3168448708
  C         2.9654754165        6.2680504116       10.5243848181
  H         5.0773797214        6.0388521116       30.2348179672
  H         5.5064630605        5.3036204244       31.7930922162
  C         7.2384864225        5.9947278672       30.8313506354
  H        -8.7367200064       10.0030954141       24.0510290267
  H        -8.0940469534        8.7528903536       24.9347985223
  C        -9.5150508455       10.0384843007       25.9840360349
  S        -3.5429576317       14.4106577483       36.7393560378
  C        -2.8819401087       16.9951295734       37.3799572030
  H         2.7049787656        5.1702994132       10.3725933899
  H         2.2140566399        6.8484480858       11.0813126949
  H         3.0183649455        6.5867225324        9.4679180929
  H         7.7607957505        6.8747860130       30.2947756577
  H         7.3869308892        5.1693465551       30.1762726700
  H         7.7160368164        5.8445278158       31.7757154789
  H        -9.0496103822       10.2342094536       26.9935984470
  H       -10.1882587324        9.2110430891       26.0925202253
  H       -10.0804232863       10.8843132295       25.6864635383
  C        -3.9432517778       15.2384392167       38.2713061823
  N        -3.4233394340       16.4496113254       38.4879951843
  O        -2.5104646118       18.1795451768       37.2879187803
  S        -4.4215436591       14.2585845211       39.7076803719
  C        -3.5225783925       17.0793914448       39.7896156451
  H        -3.7681247834       18.0659577454       39.5072144674
  H        -4.3885067393       16.7334798946       40.3445238730
  C        -2.1871694230       17.1750601060       40.5214677964
  H        -1.4136920650       16.6029188331       40.0001576870
  H        -1.9156776823       18.1971426894       40.7275140864
  H        -2.2260004182       16.7304587464       41.5191805536
