352
i=
  H         2.5680700921        1.6677786200       13.6936788744
  C         3.3449388463        1.6472281491       12.9158793311
  H         3.5601134572        0.5718939846       12.7935061590
  C         2.6701629708        2.1437825368       11.5507166385
  C         4.6289991210        2.4359857587       13.3656897732
  C         3.6743766105        2.4485531744       10.4962981768
  H         2.2710318957        3.0928479600       11.8697763743
  H         1.9623424209        1.3979940199       11.3499204179
  H         4.7438141242        2.3284920891       14.4782505323
  H         4.5468873301        3.5060436189       13.1173937025
  H         5.5450130702        1.9783166608       12.9703099892
  C         4.3659679953        1.1361225484        9.9949720386
  H         3.1868696761        2.8212885257        9.5298748271
  H         4.4643226017        3.0550526355       10.8568223384
  C         5.0694852198        1.3405859915        8.6178123616
  H         3.5889251284        0.3417493265        9.8678461643
  H         5.0170474293        0.8748365197       10.7911291127
  C         6.4049168889        2.1284107472        8.7313838412
  H         4.3874645595        1.8911861977        7.9418697612
  H         5.1904690342        0.3282402974        8.1902106275
  C         7.6365764636        1.2524775622        9.1661742324
  H         6.6607703408        2.4640600137        7.7082930203
  H         6.2374111458        2.9670867985        9.3273435717
  C         8.9359844089        2.1738739272        9.3854349114
  H         7.8755162365        0.6060003234        8.3298878122
  H         7.3418015697        0.7747783576       10.1012562451
  C         8.5518747769        3.5285790593       10.0874934274
  C         9.4599572585        2.9820754706        8.1872350353
  C         9.9378975785        1.3737129942       10.2419485498
  C         8.8355073551        4.6613031843        9.3496759395
  C         8.0429429119        3.8987624673       11.3665315221
  C         9.4000835920        4.3234661205        8.1267770795
  C         9.9584006183        2.4487237741        6.9769613571
  H         9.3996526075        0.9902985004       11.1420240534
  H        10.2786896912        0.5337062715        9.6614033120
  C        11.1894851421        2.2154557631       10.7015780487
  S         8.4216406493        6.1340987577       10.0696603116
  C         7.9981724653        5.2590414585       11.5009642192
  H         7.6285447367        3.0941491865       11.9600989187
  C         9.7403384103        5.0470319503        7.0051012457
  H         9.9462923746        1.3365458785        6.9762943165
  C        10.3076293064        3.1551954142        5.8651500810
  H        10.7556436171        3.1436572521       11.0428915756
  H        11.7513058614        2.5353242605        9.8384059172
  C        12.0560859742        1.5345738428       11.7364797992
  C         7.5639758270        5.8432584427       12.7713329328
  C        10.1196554405        4.4716447470        5.7903014909
  H         9.6494894157        6.1452438173        7.1279515789
  C        10.7399812863        2.7769796818        4.5979244266
  H        13.0326540125        1.2975853148       11.2828866446
  H        11.4036076400        0.6531400869       11.9779522676
  C        12.2086893933        2.3874835299       12.9817455773
  C         7.4665832318        7.2355277922       13.0007664039
  C         7.0249844645        4.9703309718       13.8292449358
  C        10.4581142962        5.2267203132        4.5430964519
  C        10.8648661035        3.8857765647        3.8122161239
  S        10.9944828092        1.2383855599        3.8134940059
  H        12.6128402671        3.3976350735       12.6489271726
  H        11.1681380732        2.5479790490       13.4193725386
  C        13.3056923719        1.8036147452       14.0045772203
  N         7.7600336943        8.2678456869       12.0571990307
  C         7.1840037446        7.7479893703       14.2352356154
  C         6.7527954619        5.5378925550       15.1618366037
  H         6.8068041073        3.9362195509       13.5825692893
  C        11.8165692581        6.0472334717        4.6897577422
  C         9.2453245733        6.1129247163        3.9733494483
  C        11.2253565784        3.4931244458        2.4982083047
  C        11.2962005294        2.0977109110        2.3589949770
  H        13.8325392586        2.6228180993       14.4226189438
  H        13.9976507384        1.1884961293       13.4645675365
  C        12.7082833302        1.0740942863       15.2169865136
  S         7.5776144942        9.7318649832       12.7178636186
  N         7.2827358708        9.1470173276       14.2449606967
  C         6.8480286551        7.0333563109       15.3934369626
  H         6.2110343269        4.9971239579       15.9093125967
  H        11.6861142236        7.1013692418        5.1021341364
  H        12.2215887726        6.0945648348        3.6822222955
  C        12.9088047445        5.1766333702        5.4260036362
  H         9.1055367663        7.0168063518        4.7088382216
  H         9.6030582675        6.5629310874        3.0873940277
  C         7.9956015672        5.3097965262        3.7355306505
  H        11.3745001451        4.2573267724        1.6974044430
  C        11.6708857477        1.4078643647        1.1285601974
  H        11.7956025003        0.6010402210       14.9972117960
  H        13.3343430102        0.2884529318       15.6014747432
  C        12.3984043359        2.0138505629       16.3915173731
  C         6.6253004227        7.7676998395       16.5963593837
  H        12.7266034982        5.2004891837        6.5139259118
  H        12.9724194006        4.2066877664        5.0853250154
  C        14.2765892509        5.8295776390        5.2154359643
  H         7.3224156330        5.2228176971        4.6218378407
  H         8.2910623228        4.2788855270        3.5119308681
  C         7.1794541903        5.8094735800        2.5878651589
  C        11.6886041115       -0.0003863452        0.9579636669
  C        12.0877401819        2.2173410716       -0.0638417262
  H        11.9887407282        2.9797714204       16.0740593227
  H        13.4025333002        2.2770723446       16.6668963276
  C        11.6828453377        1.4844518761       17.6679301029
  H         6.6280914951        8.8108335728       16.6023684765
  C         6.3884359505        7.3916463259       17.8703966026
  H        14.2330240221        6.8822059803        5.5071916365
  H        14.6195200253        5.8787647028        4.1451851187
  C        15.2493367042        5.0043113196        6.0515200300
  H         7.7610965202        6.5189354492        2.0195979333
  H         7.0848204192        5.1096899078        1.7863714777
  C         5.7537867657        6.4102769273        3.0657919949
  N        11.3801827785       -0.9499900889        1.9025751991
  C        12.1065817618       -0.6543930422       -0.2387546171
  C        12.4084807589        1.5896733495       -1.2803922411
  H        12.1959247393        3.2879781406       -0.0344921780
  H        11.6118445789        2.3066697077       18.2493502821
  H        12.1827342908        0.6650112210       18.2019781737
  H        10.6478261194        1.1214511316       17.4019279633
  S         6.2413126933        5.7918778051       18.3616379242
  C         6.1804823488        8.4199514458       18.9162579757
  H        14.7303878194        4.4798488744        6.7933162418
  H        15.7746729261        4.3507975011        5.3195666520
  C        16.3592116603        5.8811078756        6.7113107364
  H         5.8758015111        6.7352252433        4.0682229900
  H         5.1335187692        5.4907698222        3.0701703962
  C         5.1136024964        7.4317417370        2.1280632478
  S        11.5363051310       -2.4368740028        1.2820421103
  N        12.0670603804       -2.0236568309       -0.2113827948
  C        12.4194991458        0.0932168465       -1.4154021245
  H        12.6739283133        2.2675991088       -2.1163593907
  C         5.9869237224        6.4461956135       19.9745891717
  N         5.8936980483        7.7909815878       20.0154297673
  O         6.2625400681        9.6495441373       18.7248349040
  H        16.8338147132        6.3630275880        5.8653014447
  H        15.7993932011        6.6080541994        7.2987339126
  C        17.3669053263        5.0908989359        7.4847862284
  H         5.8454877708        8.2558439113        2.1200684965
  H         4.9682990883        7.1103170942        1.0996367076
  C         3.7937400843        7.9223179296        2.6738279722
  C        12.7393132610       -0.6312037212       -2.6668476722
  S         5.4082586860        5.5669414495       21.3665880749
  C         5.7040886428        8.6949118185       21.1848976265
  H        16.9633614263        4.7913989885        8.4202280243
  H        17.5956123625        4.1187930040        7.0182341903
  C        18.7721093755        5.7574567140        7.6464424008
  H         3.6246975548        7.4892448592        3.6430017290
  H         2.9660213658        7.6120221705        2.0477874071
  C         3.6421029311        9.4027143058        2.9469985500
  H        12.7183053549       -1.6938120681       -2.6270938353
  C        13.3144694770       -0.2639667067       -3.8930838530
  H         4.9238818996        8.2790744524       21.7396450601
  H         5.3763272412        9.7181988261       20.9863721050
  C         7.0269510326        8.8265698608       21.8928457278
  H        19.2294540545        5.5744967394        8.6249854373
  H        18.5302034357        6.7948037581        7.6585398010
  C        19.7940278783        5.4624153411        6.5613993090
  H         3.0435094151        9.4935103193        3.8159904933
  H         4.6009979559        9.7896619769        3.3769060751
  C         3.2938901341       10.2797794949        1.7237017564
  S        13.8365326121        1.2978749064       -4.3336830537
  C        13.4567886252       -1.3613554960       -4.8605067794
  H         7.0120414430        9.7820682590       22.3810007760
  H         7.9039505292        8.7409069201       21.2674262379
  H         7.1871482920        8.0220685867       22.6547744922
  H        20.0738175941        4.4425651174        6.5942240399
  H        19.5627462145        5.6457815320        5.5508885598
  H        20.6807349104        6.1457033109        6.7393933735
  H         3.9117103733       10.2952806350        0.8498934222
  H         2.3119355225       10.0438348657        1.3581416180
  H         3.2505109901       11.3424129752        2.0712878133
  C        14.1170721926        0.5229445729       -5.9488779368
  N        13.9710843796       -0.8322400945       -5.9638861225
  O        13.1421962611       -2.5548598604       -4.6257400368
  S        14.5299976084        1.3544555929       -7.3895382144
  C        14.1465849757       -1.6609772138       -7.1603638315
  H        14.3326673875       -2.6180886277       -6.7789601754
  H        15.0047878533       -1.3844073057       -7.7979748134
  C        12.7987174912       -1.6481545234       -8.0253021742
  H        12.1712154503       -0.8446470634       -7.5614508229
  H        12.1334697645       -2.5246078379       -7.9296540229
  H        12.9786167166       -1.4952138095       -9.1070377340
  H        -4.1213502867       13.1647503181       16.5681905170
  C        -3.0481215162       12.9487901044       16.3993628984
  H        -2.8780334280       11.8506043298       16.3990472903
  C        -2.1632795594       13.7068443831       17.3090805373
  C        -2.7942445062       13.3732864173       14.8969229161
  C        -2.6893068544       13.4392332001       18.7350839575
  H        -1.1960486797       13.1594568802       17.2526171465
  H        -2.1108351122       14.8095841077       17.1392261658
  H        -3.5130510993       12.7542583095       14.3188635873
  H        -2.8893800725       14.4549646441       14.7982533105
  H        -1.8755018710       13.0936080638       14.5313172773
  C        -1.6806086341       12.9684298135       19.7997073479
  H        -3.3940496088       12.6333088053       18.7579069983
  H        -3.0482319194       14.3265087815       19.1453705090
  C        -2.2523925097       12.9587896829       21.2541795850
  H        -1.4304068658       11.8957157356       19.5658503398
  H        -0.7390841476       13.5855004776       19.8733827889
  C        -1.2805475096       12.4225438020       22.3128676473
  H        -3.0779987863       12.1863231600       21.2705155024
  H        -2.6648118297       13.9358485032       21.4818458139
  C        -0.1152686397       13.2886411495       22.7386566016
  H        -1.8839445581       12.2735673007       23.1884274706
  H        -0.8986388657       11.4869310731       21.9428427839
  C         0.9538133554       12.7264908682       23.5903807281
  H         0.2953854867       13.6739101833       21.7842905715
  H        -0.3690694523       14.2549007353       23.2681725555
  C         1.3417996514       11.3807227998       22.9403555001
  C         0.5293570067       11.9926733958       24.8634683025
  C         2.1167064638       13.6757009127       23.7592406589
  C         1.2652825883       10.3233556685       23.8796228961
  C         1.7931093874       10.9718626388       21.7057402328
  C         0.7604010371       10.6948992387       25.1018389231
  C         0.1009295374       12.6238596119       25.9786732738
  H         2.2204739417       14.0029247500       22.6687743601
  H         1.8374595083       14.6222824990       24.2605414300
  C         3.3970047254       13.0713612303       24.3248048858
  S         1.6932480941        8.7589017139       23.1950861360
  C         1.9314891561        9.6066801961       21.6655131853
  H         1.8237341909       11.7638143971       20.9629908611
  C         0.4419160219       10.0859748277       26.2698548444
  H        -0.0976447025       13.6651166910       25.9397449295
  C        -0.1293372401       12.0494604746       27.1873145850
  H         3.7248034694       12.1954115199       23.8476903155
  H         3.1540483676       12.6732093591       25.3260837832
  C         4.5642649222       13.9958331972       24.6823270687
  C         2.2561865564        8.8614768122       20.4448512448
  C         0.0037646343       10.7449792970       27.4236776572
  H         0.6202751811        9.0418879740       26.3333686771
  C        -0.4622609247       12.5198254743       28.4092629141
  H         5.3749156509       13.3846599227       25.1205941034
  H         4.2729286237       14.6433098830       25.5190680181
  C         5.0170368173       14.8531699175       23.5244073850
  C         2.3214964941        7.4550726634       20.1757691131
  C         2.6990515636        9.7659603219       19.3069311892
  C        -0.3874781269       10.0709512905       28.6852665031
  C        -0.5714375159       11.4230861909       29.3336362536
  S        -0.8413477326       14.0447430795       29.0986666793
  H         5.2240110037       15.8368469670       23.9376665793
  H         4.2260885761       14.9855274685       22.7781794113
  C         6.2187569756       14.2410782409       22.7541961190
  N         1.8982819817        6.5258951278       21.0910028872
  C         2.6099691962        6.9383878322       18.9246374923
  C         2.9600530040        9.2010910764       18.0511994506
  H         2.6806499026       10.7833306206       19.3997360512
  C         0.6592346642        9.2042506852       29.4942074045
  C        -1.6270638373        9.2423617645       28.4901686722
  C        -0.9657010460       11.9789570304       30.5944344606
  C        -1.1619035771       13.3081659361       30.5950999667
  H         6.9939166945       15.0451647474       22.7695934954
  H         6.6174862737       13.3191122704       23.1741904067
  C         5.7349905449       13.7378943350       21.4066305586
  S         1.9576719920        5.0660869436       20.3523577553
  N         2.5072560733        5.5388089754       18.8353044976
  C         3.0006494210        7.7438434368       17.8458096502
  H         3.3701055889        9.8379628714       17.2433201986
  H         0.9949956706        8.3487800605       28.9820853848
  H         0.1047651460        8.8676204506       30.3825783162
  C         1.8171135140        9.9878023704       30.0625312494
  H        -1.3541287378        8.3872863109       27.8793481604
  H        -2.0284301190        8.7914795862       29.3523016518
  C        -2.8552533229       10.0116783118       27.9155921723
  H        -1.2026214132       11.3326067070       31.4315904204
  C        -1.5416501973       14.0810983169       31.8117280690
  H         5.4151092612       14.6307463192       20.8513815146
  H         4.8809798818       13.0346509103       21.5283687313
  C         6.7383231366       13.0240569743       20.4092824812
  C         3.1655469725        7.1239215907       16.5609431711
  H         2.1784561893       10.8216483985       29.4877785028
  H         1.4156248232       10.4805172974       30.9870746073
  C         3.0841481157        9.1201036414       30.4483465492
  H        -2.5156874117       10.5932641127       27.0700257976
  H        -3.3885259784       10.7452286505       28.5941779572
  C        -3.9603811085        9.1452540363       27.4592810667
  C        -1.5858011840       15.5004969557       31.9230536222
  C        -1.5484786944       13.3302371957       33.1718543436
  H         7.7636434755       13.2834975381       20.5511882791
  H         6.7781070798       12.0491525463       20.7543477839
  C         6.1504924929       13.1204820858       19.0200626718
  H         2.9753826895        6.0576996589       16.5538806092
  C         3.4660919167        7.5610958613       15.3058302080
  H         3.1146584283        8.4352329028       29.6427899005
  H         2.8397139686        8.7379908029       31.4456585410
  C         4.3241500069        9.9570036245       30.5276015102
  H        -3.7693166023        8.7390226753       26.5157258786
  H        -4.0923420735        8.2958563279       28.1654641468
  C        -5.2842586291        9.8936274352       27.5250944910
  N        -1.4984809348       16.4223057298       30.9072948019
  C        -1.8358662426       16.1819292563       33.1106643185
  C        -1.7419746743       14.0480353093       34.3561065265
  H        -1.1686158242       12.2549875601       33.2572252815
  H         5.6986758532       14.1465485437       18.8000188246
  H         6.8007312731       12.7875214358       18.1671147009
  H         5.3191865012       12.4981421193       18.9633762529
  S         3.6012468732        9.2155440754       14.7312579344
  C         3.4593418989        6.5470357326       14.2465079028
  H         4.4129849412       10.5247775209       29.6238809426
  H         4.2431716765       10.6554154688       31.3445740646
  C         5.7061937754        9.1792140178       30.7363201934
  H        -5.2304122329       10.8302431886       27.0180244061
  H        -5.6426952508        9.9959356492       28.5395532964
  C        -6.3224054157        9.1465985508       26.6378429963
  S        -1.5711967992       17.9651554606       31.4941783112
  N        -1.8957854615       17.5618677345       33.0051843952
  C        -2.1147893016       15.4898594604       34.3137230566
  H        -1.7281937081       13.5394466289       35.2838392503
  C         3.8969419360        8.4974312034       13.1758107732
  N         3.8311173184        7.1146431393       13.1028298892
  O         3.2243147265        5.3542338604       14.3706194360
  H         6.4437613425        9.9440951008       31.0089556092
  H         6.0536474904        8.8565124040       29.7755081430
  C         5.8593980399        8.0506051085       31.7535561906
  H        -5.8810999650        8.4781685016       25.9416644039
  H        -7.0934251169        8.6226586982       27.2160004124
  C        -7.0151007352       10.1544356345       25.7324626368
  C        -2.5511828604       16.2836972059       35.4157030442
  S         4.1866384005        9.3920815834       11.6716768926
  C         3.9523737267        6.3153079480       11.8819226022
  H         6.8178529909        8.0952266865       32.1748044746
  H         5.2356854194        8.3385320690       32.6090979376
  C         5.7019857295        6.6493347942       31.3693255984
  H        -6.3718740784       10.1103983535       24.8751657386
  H        -7.0884090710       11.1941393580       26.1156951827
  C        -8.2976304841        9.7588637751       25.1392845046
  H        -2.5132649969       17.3533527653       35.3173240095
  C        -2.9732747206       15.9168461134       36.7231396236
  H         4.6799960379        6.6551555410       11.1845263230
  H         4.2650127988        5.3510474251       12.1005632726
  C         2.6374311487        6.2581086143       11.0642906445
  H         6.2882492658        6.4757445040       30.4142118728
  H         4.6272487833        6.5714727269       31.1836312765
  C         6.3201928575        5.6365790570       32.3558652413
  H        -8.6102960328       10.3579665585       24.3491595844
  H        -8.1943425224        8.7351776500       24.7055882122
  C        -9.4322850854        9.9983681389       26.2070268621
  S        -3.1807217181       14.3163610057       37.3599070490
  C        -3.0302102573       16.9473299134       37.8045266306
  H         1.7691486623        6.6342571981       11.6179186921
  H         2.7488002761        6.8084297277       10.1391938607
  H         2.3739297440        5.2236605764       10.7916907345
  H         5.9768434018        4.6037481572       32.1649838979
  H         6.3445149141        5.9483020286       33.4281553097
  H         7.3336957537        5.5030111316       32.0665176573
  H        -9.6957007291       11.0851593235       26.1481307729
  H        -9.0798706525        9.9063725335       27.2557320858
  H       -10.2786091788        9.3807273755       25.9128674281
  C        -3.4120743977       15.0300809232       38.8903524211
  N        -3.4657285835       16.3893610658       38.9387335834
  O        -2.6534590057       18.0744846990       37.6370076104
  S        -3.8832566917       14.1371674985       40.4043253113
  C        -3.6287294798       17.2787845845       40.0697862957
  H        -3.8030625675       18.2988925917       39.7364601301
  H        -4.4500626495       16.8501330433       40.6464386010
  C        -2.3441763356       17.2889049296       40.8384017299
  H        -2.4536428739       17.9887128024       41.7071194708
  H        -2.0674166754       16.3579803314       41.2816688768
  H        -1.5282328070       17.6464834290       40.1420831061
