352
i=
  H         4.6308495238        0.9329990887       12.8630559396
  C         4.1180518542        1.8872933242       13.0267485816
  H         4.8308553613        2.6680798886       13.2743812550
  C         3.3937527520        2.1768149792       11.6982113008
  C         2.9721957762        1.8260142312       14.1221385342
  C         4.3561390815        2.3991278239       10.5477181951
  H         2.7860799255        3.0915625229       11.7163620674
  H         2.7601450047        1.3729926733       11.4991974327
  H         2.5405217616        2.8204751789       14.2422762287
  H         3.3843905992        1.7111973534       15.1452239609
  H         2.2592861706        1.0332149524       14.0362456724
  C         4.7793744087        1.1559272699        9.7671885086
  H         3.9281071854        3.2290965333        9.9309222448
  H         5.2113879968        2.9431368813       10.7772938961
  C         5.4527236288        1.4913435199        8.4578456627
  H         3.9092595516        0.6146978620        9.4263810128
  H         5.4223657660        0.5618627247       10.4421089293
  C         6.7736210919        2.2910587515        8.4790141197
  H         4.7263270015        2.0206220161        7.8422823193
  H         5.5788443038        0.5077741601        7.9095457004
  C         8.1059663798        1.6084666845        9.0021213689
  H         6.8669097030        2.9044245511        7.5059693305
  H         6.4256054547        2.9675184677        9.2113658000
  C         9.2865111663        2.5620481503        9.0867215022
  H         8.2591925101        0.7145512640        8.3893422419
  H         7.9042575301        1.2156118828        9.9822492439
  C         8.8203692670        3.9058879713        9.7976489548
  C         9.6308501714        3.3317452445        7.8734193599
  C        10.4910355326        2.0077797288        9.8874854425
  C         9.0833685099        5.0267378417        9.0695075972
  C         8.2558050974        4.2511026605       10.9957848811
  C         9.6063473997        4.6789268627        7.8450799792
  C        10.0134864670        2.7732822375        6.6734338139
  H        10.1591957221        1.4076660756       10.7363823982
  H        11.0442957978        1.2754842752        9.2671023926
  C        11.6132859488        3.0524481867       10.3224685490
  S         8.6816121857        6.5376497537        9.9299183580
  C         8.0840036970        5.5782664307       11.2458507399
  H         8.0932362578        3.4428867495       11.6828853680
  C        10.0977656517        5.3349511556        6.7573383993
  H        10.2577195632        1.7075834319        6.7326560559
  C        10.4586126778        3.3779980911        5.5431194235
  H        11.1920864486        3.9913675752       10.5417243325
  H        12.1587096627        3.1999108123        9.4510664784
  C        12.5338954402        2.6723660628       11.4572507945
  C         7.7342395496        6.2448538809       12.5376497772
  C        10.5015181909        4.7637464351        5.5531876315
  H        10.1012089405        6.4332316940        6.8246285840
  C        10.9001846413        3.0470991976        4.2943759757
  H        13.4256212806        3.1142361433       11.2523010142
  H        12.8454656083        1.6425762725       11.2432066093
  C        11.9953651245        2.8201875145       12.8280182252
  C         7.5821541482        7.5953512025       12.8061561172
  C         7.3304210675        5.3654440568       13.5817004543
  C        10.8849276131        5.5119864358        4.2743325169
  C        11.1152152603        4.1752498771        3.5154578350
  S        11.0830757594        1.6137197571        3.3861826409
  H        12.3058046388        3.7565915476       13.2838164345
  H        10.9173741848        3.0047603146       12.7146171303
  C        12.1262146602        1.6354663526       13.8214973850
  N         7.9270808958        8.6204608135       11.9061791794
  C         7.3091327352        8.1038290927       14.0672559683
  C         6.8803048210        5.8405658953       14.8416001816
  H         7.4659443637        4.3211486464       13.5831658911
  C        12.1510692784        6.3574172245        4.5532133719
  C         9.7330371306        6.3356132147        3.7535960002
  C        11.6365618266        3.8670130545        2.2308782194
  C        11.6323021784        2.4992688952        1.9764891677
  H        13.1983624827        1.2453491519       13.7249225006
  H        11.3538182910        0.8996503625       13.5616719481
  C        11.9051967201        2.0073386643       15.1895458321
  S         8.1635605510       10.0151672465       12.7211462337
  N         7.6731563922        9.4182514759       14.1695739429
  C         6.8626398206        7.2974426076       15.1526938508
  H         6.6341788047        5.1020873788       15.5814533162
  H        11.8403456970        7.0649664401        5.2551066771
  H        12.2735030009        6.9392033497        3.6564841311
  C        13.2920024077        5.4556906705        5.0505715769
  H         9.5171583811        7.0565242460        4.5874206606
  H         9.9922167375        6.8137430561        2.8316038203
  C         8.4471383740        5.5637417685        3.4816485226
  H        11.9293375676        4.7005438371        1.6431774152
  C        11.8627587669        1.8083660672        0.6684857314
  H        11.3232259452        2.9475583860       15.2725307905
  H        11.2941061320        1.3102297211       15.7714611586
  C        13.2435427284        2.2463725431       15.9320822960
  C         6.6723360615        7.9968969735       16.3404817300
  H        13.0174644327        4.7501591625        5.7717504790
  H        13.6099704326        4.9029266592        4.0811926828
  C        14.5572760273        6.2063497131        5.4946267325
  H         8.1257962635        5.0118892483        4.3774152428
  H         8.7388709605        4.9881509518        2.5843481046
  C         7.3152227246        6.4632037228        3.0462143746
  C        11.8807266983        0.4357659758        0.3955436696
  C        11.9430565417        2.6302736942       -0.5744499006
  H        13.8113817535        2.9653809716       15.2689981798
  H        13.8494198002        1.2795895145       15.8724521873
  C        13.0649313937        2.7921778753       17.3418083403
  H         6.8276510059        9.0511111692       16.4137290773
  C         6.4189516408        7.5627729233       17.6020726915
  H        14.2630186982        6.8199394105        6.3108135997
  H        14.7509350482        6.9506884609        4.6775566271
  C        15.7554998170        5.2745815293        5.7993799131
  H         7.0300209311        7.1086434692        3.8279232376
  H         7.6138271207        7.1350567828        2.2838552923
  C         6.1078794249        5.6676725339        2.6992703462
  N        11.6788938769       -0.5273489949        1.3890386256
  C        12.1126972184       -0.1014858985       -0.8592457822
  C        12.2922333200        2.1580975889       -1.8604313893
  H        12.0010050294        3.6949274527       -0.3567254536
  H        12.6286125237        3.8169820730       17.3853087235
  H        14.1114500851        2.8458186604       17.8192385593
  H        12.4108473744        2.0956952877       17.8688292802
  S         6.1137865863        5.9838619819       18.1383108076
  C         6.3723202563        8.6528341628       18.7003289828
  H        15.2717813138        4.4822169802        6.3770792238
  H        16.2526432951        4.9068872092        4.8970816621
  C        16.7497184287        5.9525424283        6.6888128742
  H         5.5820782830        5.5630343602        3.6223256163
  H         6.5398352531        4.7989534711        2.3627386800
  C         5.1019597347        6.2856813084        1.6814995441
  S        11.7336358733       -2.0347033871        0.6772415040
  N        12.2052250106       -1.4906891052       -0.8136614423
  C        12.3333018971        0.6549886511       -2.0437924872
  H        12.3927877418        2.9350452736       -2.5842525833
  C         5.9411387426        6.7508254944       19.7402200683
  N         6.0144394464        8.0705474010       19.8088934964
  O         6.4584104297        9.8809135491       18.4341059089
  H        17.1249499995        6.8071504622        6.2270746903
  H        16.1528830384        6.1603675260        7.5266196737
  C        17.7839068268        4.9495610275        7.1734602342
  H         5.6222790663        6.5832312609        0.7389991266
  H         4.4594196841        5.4744056533        1.2645001483
  C         4.1788025683        7.3137370473        2.4423767134
  C        12.7473505682       -0.0563102100       -3.1845843310
  S         5.4243536395        5.9847669286       21.2459952607
  C         5.8768275434        8.8858015235       20.9979981180
  H        17.5988364400        4.7091627107        8.2352840470
  H        17.6680447251        4.0913361162        6.5715411023
  C        19.1064808921        5.6627367293        7.0548548018
  H         4.7054521200        7.6413552850        3.3655837411
  H         3.2692576268        6.7537831584        2.8010560629
  C         3.7688251913        8.4527548149        1.6090914439
  H        12.7325557513       -1.1190265739       -3.0489508856
  C        13.4813721402        0.2567480510       -4.3064898164
  H         5.1388562588        8.4835258436       21.7454327547
  H         5.4682705164        9.8780357682       21.0318045629
  C         7.3068981225        9.1578119822       21.5815500602
  H        19.9258449160        5.1488772509        7.5699775113
  H        18.9662786310        6.5546047472        7.5263670372
  C        19.4578875226        5.8921293175        5.5528388214
  H         3.4282438328        7.9647430755        0.6882817097
  H         2.9369708180        8.9059389760        2.0716373875
  C         4.8757462982        9.4174204681        1.2907294627
  S        14.2172276090        1.7969111965       -4.6037244098
  C        13.6336077657       -0.7900306936       -5.2835893568
  H         7.8207482729        8.2110054599       21.8795216158
  H         7.0723883193        9.7585818162       22.4621139418
  H         8.0091127903        9.7361595267       20.9577578856
  H        20.3444275088        6.5670216663        5.5621520436
  H        19.6391600463        4.9744280096        5.0001431042
  H        18.6576196034        6.4269223462        4.9520885998
  H         5.7815105387        8.7911597144        1.4383646446
  H         4.7435385949        9.8410991493        0.2914075727
  H         5.0920610373       10.1477290571        2.1220524676
  C        14.6400995800        1.0954101825       -6.1601852154
  N        14.3617311065       -0.2504709206       -6.3103466714
  O        13.1543329610       -1.8840854716       -5.1686641805
  S        15.3906794931        2.0121671937       -7.4471024750
  C        14.3575806559       -0.9109283509       -7.5881214805
  H        14.6074234923       -2.0597933895       -7.5400424830
  H        15.2408507858       -0.5522713920       -8.1515195584
  C        12.9361157685       -0.9315727691       -8.2762016378
  H        13.1049546553       -1.0208533493       -9.3466236706
  H        12.4104779409       -0.0254799632       -8.1010410330
  H        12.3004240347       -1.7682780864       -8.0397660824
  H        -3.3396095068       14.7571477282       16.2531893242
  C        -3.4620577624       13.6828464523       16.4973919504
  H        -4.3532542268       13.7366381758       16.9936295551
  C        -2.3680439007       13.1997426769       17.5004821582
  C        -3.5871042409       12.7340563371       15.2847839328
  C        -2.7369999235       13.4858556654       18.9316825130
  H        -2.1590616325       12.1677446646       17.3763610405
  H        -1.4896152135       13.8753636729       17.3679867889
  H        -3.9408959742       13.2959159317       14.3928354697
  H        -2.6352418327       12.2625452156       15.1123825417
  H        -4.2451322773       11.8306699641       15.5348258219
  C        -1.6376725958       13.0506408820       19.9588885330
  H        -3.7261857730       13.0839996543       19.2608370139
  H        -2.8768326780       14.5953503326       18.8900779957
  C        -2.1755725692       13.0814547837       21.3673167903
  H        -1.3509320662       12.0512607690       19.6767746554
  H        -0.6671991934       13.6293040532       19.9259456586
  C        -1.2131775536       12.4348765008       22.4355095800
  H        -3.1466731427       12.6441560440       21.4225355550
  H        -2.2989007695       14.1084918432       21.5919275307
  C        -0.0532444534       13.3586773381       22.7090828365
  H        -1.7967610440       12.1122658539       23.3144920188
  H        -0.9456786005       11.4012743610       22.1177342526
  C         1.2097631434       12.6020856694       23.2896014184
  H         0.1752193612       13.7737033540       21.7481446765
  H        -0.3186749015       14.2378457550       23.3129829572
  C         1.5342469643       11.3184032424       22.5607844035
  C         0.8011533542       11.8904408613       24.5174824014
  C         2.4136356476       13.6105638245       23.4496652843
  C         1.4261945138       10.2794014206       23.3757391286
  C         2.1871052144       10.9565207321       21.3791861835
  C         0.8540849195       10.5826196510       24.5716873337
  C         0.3854372843       12.5130072487       25.6740041669
  H         2.4224141655       14.1855923351       22.4815973454
  H         2.1961784098       14.2634479002       24.2843109265
  C         3.7497590606       12.8943189645       23.6333883744
  S         1.8058631535        8.7419079674       22.6777878605
  C         2.2091948603        9.5512969115       21.1967999566
  H         2.5345564612       11.6791280268       20.6874318589
  C         0.4138431778        9.9640935995       25.7269972611
  H         0.1880257393       13.5854494362       25.5736285893
  C        -0.0559485025       11.8295980410       26.7770007879
  H         3.9942957565       12.1635914513       22.8073836832
  H         3.7866219429       12.3483138575       24.6239071212
  C         4.9213648795       13.9208381486       23.6750909433
  C         2.5918176680        8.8848968211       19.9159735220
  C        -0.0635002053       10.4786318899       26.8852816777
  H         0.4536459714        8.8742115450       25.6128000258
  C        -0.5702064218       12.1949650902       27.9825964892
  H         5.8039097027       13.4456115858       24.1504982721
  H         4.6026613417       14.8357457963       24.1648143741
  C         5.4878212561       14.2721537488       22.3015510704
  C         2.6120592442        7.4012506482       19.7042723045
  C         2.8899748924        9.6829333961       18.6789701146
  C        -0.5236960030        9.7368991126       28.1616976625
  C        -0.7488414854       11.0634073305       28.7974227753
  S        -0.7677340242       13.6580437350       28.7542800286
  H         6.0940582646       15.1583127456       22.2844343926
  H         4.6403926340       14.2294633071       21.6065247411
  C         6.6169841663       13.2383660900       21.7341894891
  N         2.3490413876        6.5036844632       20.7530143540
  C         2.7286770020        6.7842612444       18.4175347067
  C         3.1840053951        9.0545848397       17.4287334308
  H         2.8309320530       10.7373970685       18.6814804066
  C         0.6549783794        8.8689505315       28.8119288334
  C        -1.8560144168        8.9238695085       27.7042161412
  C        -1.2529481657       11.4417620600       30.0646216973
  C        -1.2506489110       12.8046542811       30.1683374288
  H         7.4835736347       13.8133215908       21.5431961721
  H         6.7404118973       12.3779404356       22.4195682755
  C         6.2106349172       12.5980661032       20.4377077185
  S         2.2720523566        5.0246275945       20.0861119156
  N         2.6122733330        5.3790710768       18.5303318404
  C         3.1790779614        7.5520399592       17.3005113140
  H         3.4076325854        9.6902673281       16.5713497411
  H         0.9891227835        8.1113942853       28.1354271921
  H         0.2648376622        8.3004136402       29.6537908124
  C         1.9380448409        9.6405895802       29.2079925498
  H        -1.4788964068        8.4292006986       26.8099996393
  H        -2.1411392991        8.2530637715       28.5234268786
  C        -3.0216890521        9.7300980009       27.3374993094
  H        -1.5355758968       10.6925585771       30.7914465333
  C        -1.5940537090       13.5254530429       31.4545893099
  H         5.2693366101       12.0323015161       20.5249600751
  H         7.0364690300       11.8770669427       20.0847683978
  C         5.9421236696       13.7308085488       19.4255003620
  C         3.2043534718        6.8556649188       16.0162933287
  H         2.3469550302       10.0124230381       28.2371529758
  H         1.7038488765       10.4176020525       29.9166689902
  C         2.9412191819        8.7396813053       29.8867902117
  H        -2.7344662297       10.2510148021       26.4436201022
  H        -3.1842736886       10.5562122390       28.0072143853
  C        -4.3967955032        9.0463317698       27.1987734870
  C        -1.5617667135       14.9195204749       31.7406190795
  C        -1.9254033949       12.6993075377       32.6328342787
  H         4.9150729770       13.8869403558       19.3665176010
  H         6.5018365017       14.6586540926       19.6712116459
  C         6.5337656820       13.3112116355       18.0857465550
  H         2.9668138560        5.7858846635       16.0922884466
  C         3.4993105877        7.3034725557       14.7156012107
  H         3.4008433095        7.9410606567       29.3204353797
  H         2.4494287115        8.2660193121       30.8124561509
  C         4.1007583235        9.6625220463       30.4392074621
  H        -4.3939387818        8.2757362075       26.4299899237
  H        -4.8203810962        8.7450057412       28.1016992044
  C        -5.3144292685       10.0587524826       26.5647714389
  N        -1.3891577905       15.9610208195       30.7675065469
  C        -1.9037154240       15.4151898711       33.0297134968
  C        -2.1880837048       13.2375689836       33.8760571532
  H        -1.9120854219       11.6181001924       32.5507231981
  H         5.8530382884       12.6743511054       17.5467739022
  H         6.6334969585       14.1782134243       17.4162681391
  H         7.5464348209       12.9201408189       18.1349155821
  S         3.7951776078        8.9388364119       14.2268627567
  C         3.6480176755        6.3152476759       13.6794193933
  H         4.1199117037       10.6805494894       29.9405391145
  H         3.9214391220        9.9412161062       31.4569530314
  C         5.5457762248        9.1149320453       30.4149237412
  H        -4.8101947694       10.4906137798       25.6781361291
  H        -5.5694136530       10.8746533483       27.2262391062
  C        -6.5648624543        9.4390749827       26.0681540639
  S        -1.6315491160       17.3846008544       31.4671719410
  N        -2.0522792690       16.7699470978       32.9390204611
  C        -2.1955716185       14.6628138974       34.1655344434
  H        -2.3044725976       12.5102026304       34.7000941989
  C         4.1567171262        8.3480885994       12.6814460768
  N         4.1370198284        6.9854528108       12.5746846903
  O         3.4258041514        5.1173860354       13.9092849807
  H         6.1894492419        9.9127284338       30.8044992465
  H         5.9104524944        8.7108164196       29.3774997143
  C         5.6850451571        7.9753480858       31.4348328021
  H        -6.4916017159        8.6176326074       25.3425195742
  H        -6.9480109254        8.9372282751       26.9402779960
  C        -7.5986451111       10.3652358080       25.3748400086
  C        -2.6446550124       15.2946016426       35.3526371614
  S         4.5450366719        9.3529017341       11.3263612138
  C         4.2110211103        6.2756272863       11.3116934341
  H         6.1188868341        8.2418925331       32.3051598689
  H         4.7078271337        7.6553469193       31.7564513642
  C         6.4290723657        6.8076434614       30.8305223815
  H        -7.1056793652       10.8417310868       24.5403327035
  H        -7.9100232468       11.1210533633       26.0092641447
  C        -8.7338911645        9.6994344498       24.6495806850
  H        -2.2682363204       16.2784065418       35.4482223908
  C        -3.3574718484       14.8389574238       36.4364101156
  H         5.0660651239        6.6828639097       10.7434090447
  H         4.5559844161        5.2658666204       11.6549507440
  C         2.8582234086        6.1042062344       10.5528679101
  H         7.4235937247        7.0845943972       30.5763115597
  H         6.0061641026        6.5438444790       29.8769911688
  C         6.5811327131        5.6298243312       31.8020010101
  H        -8.9233605994       10.1761996736       23.7297173074
  H        -8.4642859627        8.7906788531       24.2761509164
  C        -9.9336017389        9.5396769076       25.5061807970
  S        -4.0585456273       13.2574000585       36.5437343084
  C        -3.5434764831       15.7273341541       37.5599100757
  H         2.9379998601        5.1451066254       10.0567474985
  H         1.9861752884        6.0939690714       11.1301095748
  H         2.7242056050        6.8213018668        9.7787859159
  H         7.2127951475        5.9407732842       32.6778040722
  H         7.1927905189        4.8520557835       31.3080357158
  H         5.6283362562        5.2165124643       32.2324414844
  H       -10.8278421922        9.4060923710       24.9057851936
  H       -10.0705063500       10.4311657568       26.0372028840
  H        -9.7965242202        8.7781545184       26.2776847629
  C        -4.6055871960       13.8337879987       38.1085598663
  N        -4.2951596625       15.1011563994       38.4423448424
  O        -3.0923902432       16.8559168772       37.6371470896
  S        -5.6129989755       12.9300071349       39.1980310531
  C        -4.5570499549       15.6315786359       39.8133901208
  H        -4.6914041851       16.6743246215       39.6851382732
  H        -5.5756789802       15.3071794939       40.1926826528
  C        -3.4736060769       15.1536074554       40.7697648769
  H        -3.0930819215       16.0293877591       41.3220831730
  H        -3.7674681935       14.3542912767       41.4879326830
  H        -2.6790488114       14.7159935423       40.2003382792
