352
i=
  H         4.1055141266        3.7625750144       12.6626889995
  C         3.0416693582        3.2938690162       12.5524477478
  H         2.3907926884        4.1899210020       12.2037978693
  C         2.9196525688        2.2240140203       11.5850693870
  C         2.5679132500        2.9266735504       13.9208061316
  C         3.5252371711        2.6356684153       10.2618258962
  H         1.8836195618        1.9468162846       11.4564061702
  H         3.4949673536        1.3394480179       11.9350073817
  H         2.6227841766        1.8611819255       14.1277563830
  H         1.5605225064        3.2967608397       13.9525834899
  H         3.0401499032        3.3651163256       14.7692394930
  C         4.5108426160        1.5122675842        9.8142373899
  H         2.6291010370        2.8841482162        9.5989416202
  H         3.9910421815        3.5858488209       10.3809695588
  C         5.1892418747        1.5951233425        8.4593107577
  H         4.1554308487        0.5023683228        9.7172740084
  H         5.3428649261        1.4014651693       10.5220212284
  C         6.4885116004        2.4812827353        8.4752341547
  H         4.5176268740        2.0503331310        7.7011913141
  H         5.4147770007        0.5374980878        8.1353245976
  C         7.7638953184        1.7711536167        9.0210072241
  H         6.7006770649        2.8293939366        7.4906371511
  H         6.2529769495        3.3745079857        9.1124066291
  C         8.9456756405        2.6927879817        9.1621605825
  H         8.0713189642        1.0512231382        8.2788764943
  H         7.5798171319        1.1918268137        9.9524274503
  C         8.4950905693        4.0613579133        9.7137021794
  C         9.4131459058        3.3535082806        7.8754780183
  C        10.0204882895        1.9611827835       10.0177042640
  C         8.8107932209        5.1267323165        8.8785023874
  C         7.9172015088        4.5095668755       10.9715449756
  C         9.3743348695        4.7191112490        7.7314959657
  C         9.9189228938        2.7201753608        6.7479095636
  H         9.4648526554        1.3879168963       10.7515989028
  H        10.5614475234        1.1726428078        9.3566421448
  C        11.1471201556        2.9182341049       10.5294671239
  S         8.4529789621        6.6779593745        9.5724824623
  C         8.0303049808        5.8796335723       11.0524727504
  H         7.5477672185        3.9425250181       11.7707632459
  C         9.7409352209        5.3322159543        6.5441076762
  H         9.9858030530        1.6504509933        6.7254134273
  C        10.2880364380        3.4073888692        5.6276033870
  H        10.7042643213        3.8312644011       10.8758087625
  H        11.7333439332        3.2329000679        9.6800467523
  C        12.0942132526        2.3069526461       11.5338934029
  C         7.6773872985        6.5663012340       12.3673955506
  C        10.2484133886        4.7667815716        5.4589123506
  H         9.5050597086        6.3729018862        6.3675539891
  C        10.7815989460        3.0077800662        4.4079833904
  H        13.0041473071        2.9441759481       11.5861577336
  H        12.3046030677        1.3008705035       11.1653755707
  C        11.5503593938        2.1453182629       12.9434400499
  C         7.6852334224        7.9658138910       12.6215125450
  C         7.3753015404        5.8013856164       13.5941479132
  C        10.7546827722        5.4786187841        4.1924829653
  C        11.0926706055        4.0292692121        3.5676545965
  S        10.9166789163        1.3849530404        3.7447672018
  H        10.8867735134        2.8789309826       13.3062516207
  H        10.9799178872        1.2827050397       12.9336159182
  C        12.7076403337        2.0898632360       13.9102258164
  N         7.8612677409        8.8527427867       11.5962500793
  C         7.4349816691        8.5974288282       13.8648898878
  C         7.0577976448        6.3614042262       14.8261728577
  H         7.0786217468        4.8020653627       13.4951687757
  C        11.9688429778        6.3846813795        4.5447605651
  C         9.6755207018        6.2123295955        3.3383541772
  C        11.5984972270        3.5196103870        2.3825922429
  C        11.5278572897        2.1104052170        2.2966380621
  H        13.3315664114        2.9631661482       13.7293699406
  H        13.3627215795        1.2802475882       13.7094216700
  C        12.3222124481        2.0645895032       15.3964906476
  S         7.8498525062       10.3233045194       12.2769339577
  N         7.4479153243        9.9619896414       13.7624991477
  C         7.1622248421        7.8505420563       15.0671043733
  H         6.7755350975        5.6537969059       15.5368877363
  H        11.7671441960        7.0048316702        5.4185937977
  H        12.1961389342        7.1306255383        3.7160620952
  C        13.1784746538        5.5592234626        4.7830223699
  H         9.4828936778        7.2216506752        3.6455648819
  H        10.0472698598        6.1998390083        2.2953199246
  C         8.3615397569        5.4059691834        3.0727731643
  H        12.0790190411        4.1759559450        1.6885159953
  C        11.7318291269        1.3153907919        1.0272099024
  H        11.8504233832        3.0713958373       15.6068333872
  H        11.6265848907        1.2842494524       15.5186393962
  C        13.4923195052        2.0038445125       16.3634442167
  C         6.8673504034        8.5189866076       16.3593664571
  H        12.9904260698        4.9805210706        5.6539482846
  H        13.4088567348        4.8902666784        3.9534484520
  C        14.4190061735        6.3988531588        4.9717819935
  H         8.1701743184        4.7476675011        3.9306981155
  H         8.4823940090        4.6469640036        2.2609875510
  C         7.3062112502        6.4052963391        2.6319403262
  C        11.8236573108       -0.1063989759        0.8214882561
  C        12.0581718508        2.1026553124       -0.2171662517
  H        14.3922320714        2.5280648756       15.8895129376
  H        13.7618881354        0.9782887446       16.6472242221
  C        13.1731498703        2.6315699457       17.6868678947
  H         7.1423424182        9.5460055895       16.3260349754
  C         6.5056044787        8.0767831647       17.6070484364
  H        14.2544459462        7.1414993499        5.7271832299
  H        14.4932427168        6.9640623402        4.0501716088
  C        15.6975386216        5.6438168636        5.0202158290
  H         6.8795642002        6.9250629925        3.5098581067
  H         7.7794032414        7.1594829862        2.0311969425
  C         6.1423318056        5.9018266265        1.8127074571
  N        11.5030205409       -0.9832294250        1.8645395251
  C        12.2055366437       -0.7365205698       -0.3685408477
  C        12.2340535153        1.4988926381       -1.4923283980
  H        12.2598600047        3.1310326798       -0.1702960449
  H        13.3133193994        1.9594501786       18.5304984526
  H        12.1436293147        2.8917740953       17.7315431418
  H        13.7950915216        3.5848123081       18.0264860929
  S         6.0616595208        6.4962060178       18.0049558791
  C         6.6735651744        9.0242354782       18.7622864718
  H        15.4610076659        4.7469631392        5.6309620042
  H        16.0166093787        5.5229709208        4.0134836986
  C        16.6863773512        6.2283782771        5.9105621065
  H         5.4611578128        5.4427514204        2.5371625765
  H         6.3381949612        5.1480530121        1.0453181948
  C         5.4294795688        7.1219433316        1.2734681622
  S        11.8159274116       -2.4865951084        1.3305470773
  N        12.2965181348       -2.1199224240       -0.2442777246
  C        12.4326575015        0.0017230493       -1.5363316212
  H        12.5742594849        2.1399466487       -2.3306975802
  C         5.9546652201        7.1560820523       19.6935807125
  N         6.1730985864        8.4846910170       19.8578673716
  O         7.2130721422       10.1443615520       18.7565420667
  H        16.6958623172        7.3096077011        5.7266806728
  H        16.2366538630        6.0976616261        6.8577900617
  C        18.0306454007        5.5490573953        5.9307799804
  H         6.2311599384        7.6983594369        0.7707710217
  H         4.6984127054        6.8591613800        0.5216096210
  C         4.8210040568        8.0485218818        2.3490287488
  C        12.7708670793       -0.7108716234       -2.7383453462
  S         5.5300370560        6.3468422711       21.0854876376
  C         6.1805082410        9.2223181177       21.1049660369
  H        17.8656096639        4.5092305076        5.7020131924
  H        18.5576922444        6.1157607300        5.1089512089
  C        18.7492935549        5.7263880387        7.3212111473
  H         5.5490240952        8.9021140074        2.4917884735
  H         4.6979385526        7.3602645575        3.1699482753
  C         3.4171026483        8.6411258955        1.9980349050
  H        12.8050749258       -1.8084978805       -2.6763424727
  C        13.1398086145       -0.3348648675       -3.9962751012
  H         5.3677942831        8.8741495987       21.6957870174
  H         5.8115261098       10.2163042040       20.8589511977
  C         7.4801211036        9.1635184014       21.8309575029
  H        18.4071595616        4.9932916106        8.0341967782
  H        18.4730274157        6.6812227969        7.7228958037
  C        20.2747193870        5.6883309077        7.2581249730
  H         2.5707418202        7.9631404783        1.8965564451
  H         3.1470357984        9.3222837207        2.7757314847
  C         3.4150246206        9.5513671818        0.7759589459
  S        13.6425390030        1.2410655583       -4.5247119934
  C        13.3019739487       -1.4286133090       -5.0080929049
  H         8.0512454896        8.3747428557       21.4006071053
  H         7.4108845737        9.1288380088       22.8792812897
  H         8.0288199327       10.0600514670       21.5660942460
  H        20.6830697112        4.8189188684        6.7571530529
  H        20.6884653120        6.4641796588        6.6205757441
  H        20.6857352016        5.8168693347        8.2787074277
  H         4.2228523049       10.2795162607        0.7554357742
  H         3.2780318318        9.1796440273       -0.1921906784
  H         2.6069161918       10.2637143725        0.8647746069
  C        13.9781313428        0.4690771764       -6.0662113402
  N        13.8167542899       -0.8435747047       -6.1156635272
  O        13.1180969076       -2.5798576546       -4.7680851759
  S        14.8586614841        1.2354607416       -7.4269807984
  C        14.2086979050       -1.8068753770       -7.1169042904
  H        14.4418772738       -2.7821205615       -6.6391502990
  H        15.1309946373       -1.5376804636       -7.5451439375
  C        13.1314140470       -1.9259095736       -8.1120760284
  H        13.3322130270       -2.8739099976       -8.5877539957
  H        13.1073955801       -1.1401148338       -8.8821645162
  H        12.1880341685       -1.8882934352       -7.6580636100
  H        -2.8328076343       15.3037992491       16.2561125937
  C        -3.0120566955       14.2251479491       16.3672704863
  H        -4.0588297299       14.0497979978       16.6505766635
  C        -2.0654377767       13.5722769411       17.4184172368
  C        -2.7565562419       13.5221777113       15.0120556366
  C        -2.6732221992       13.3639032404       18.8192695937
  H        -1.7196538794       12.5835074712       17.0185360402
  H        -1.2120008493       14.2350112819       17.6120937409
  H        -3.1642833527       12.5415627305       15.0115575728
  H        -3.2129157945       14.0890539279       14.1333198586
  H        -1.6539411076       13.3753350457       14.8246684983
  C        -1.6100585580       13.2138182226       19.9095167583
  H        -3.4289578600       12.5577529434       18.8008384987
  H        -3.2633621420       14.2005225083       19.1672654198
  C        -2.1693367088       13.3435280848       21.3334535193
  H        -1.2246866083       12.2188250980       19.8355512254
  H        -0.8126117897       13.9062908121       19.8236619076
  C        -1.2160347199       12.8261583101       22.4315676225
  H        -3.0990224863       12.9302360253       21.5157287400
  H        -2.3648918483       14.3877429281       21.5119173065
  C        -0.0040311655       13.7726730764       22.5330062564
  H        -1.8130385793       12.7530194206       23.3411970418
  H        -0.9819437192       11.8790003811       22.1100448093
  C         1.2406536530       13.2320480371       23.3579608028
  H         0.3740271174       14.1215466693       21.4955075492
  H        -0.3258932737       14.7185206636       23.0966129016
  C         1.6102937377       11.8937027042       22.5860714809
  C         0.8527527003       12.4692283256       24.5758289395
  C         2.4145071056       14.2377461821       23.4821262585
  C         1.4445513902       10.7718861162       23.3941691133
  C         2.0617666442       11.5670500683       21.2795932307
  C         0.9215396874       11.1242569721       24.6806351014
  C         0.4105298989       13.0448666030       25.7301497354
  H         2.6206505542       14.6177893328       22.5008343399
  H         2.0852816042       15.1159975636       24.1125952544
  C         3.7336582727       13.7019936296       23.9991598500
  S         1.8447712496        9.2988528049       22.5901570614
  C         2.2273817982       10.1898991449       21.1330214505
  H         2.0382525553       12.3150594836       20.5343495647
  C         0.6070894063       10.4680125734       25.7878527297
  H         0.5368891223       14.0657742180       25.8229481192
  C         0.1269714605       12.4328988177       26.9046620590
  H         4.0715548602       12.8745112710       23.3820685926
  H         3.6638784469       13.2119289016       24.9860339724
  C         4.7983718135       14.8289738001       24.1740974922
  C         2.6305810811        9.6007614607       19.7887487873
  C         0.2213066325       11.0957513596       27.0024609693
  H         0.9213840201        9.3876119368       25.8348124038
  C        -0.2654168671       12.7544127885       28.2000427920
  H         5.3880744768       14.7285743779       25.1196025639
  H         4.3273104712       15.7028054942       24.5234528999
  C         5.5946471204       15.2050757559       22.9396032345
  C         2.5289784630        8.2181095751       19.5721110933
  C         2.9948654888       10.4255584142       18.6294170774
  C        -0.1903597354       10.3112844912       28.2443053423
  C        -0.3859874934       11.6508971709       29.0057278540
  S        -0.7172067933       14.2432550124       29.0249596283
  H         6.4375325959       15.8166885893       23.2573837974
  H         5.0811343564       15.8020952244       22.1843058566
  C         6.2559146639       13.9786305917       22.2937562028
  N         2.1761752181        7.2094388261       20.4533021643
  C         2.6380412259        7.6670833687       18.3173645235
  C         3.3174501517        9.9220967359       17.3525317326
  H         3.1617505835       11.5271196942       18.7532108910
  C         0.8941117561        9.4427397073       28.8160654895
  C        -1.4673222885        9.5302543187       27.9386722509
  C        -0.6735469022       12.0396404022       30.3704538085
  C        -0.8800480412       13.3854745299       30.5214273426
  H         7.2704443842       14.1892836057       22.0944058463
  H         6.3739517542       13.1711408301       23.0848414457
  C         5.5135013973       13.4503415603       21.0807847554
  S         2.1243979010        5.7427555615       19.6744002914
  N         2.4421381341        6.3018633133       18.2197083562
  C         3.1203027252        8.4463897298       17.2189825274
  H         3.7542213084       10.6170196147       16.6491616673
  H         1.1162112234        8.7121008568       28.0587586557
  H         0.4694377326        8.9002981325       29.6556344305
  C         2.1583883791       10.1815095307       29.0843681814
  H        -1.2841058618        8.7879710862       27.1634052370
  H        -1.8480906016        8.9704075415       28.7284364227
  C        -2.6011425788       10.3405596128       27.4545034576
  H        -0.7942696838       11.2304455778       31.0133901011
  C        -1.3389517519       14.0451435072       31.7759977920
  H         4.5052987102       13.4731363354       21.1810733588
  H         5.7427142326       12.3852022461       20.9143305596
  C         6.0127053135       14.1401818074       19.8385516875
  C         3.3558391860        7.8248663771       15.9832207857
  H         2.7123991724       10.4050620902       28.2206744415
  H         1.9391609683       11.0466163758       29.6336902877
  C         3.0892353442        9.2712198888       29.7725067073
  H        -2.2931992366       10.8780044384       26.5540591958
  H        -2.7842966863       11.0566370388       28.2456115227
  C        -3.9105563343        9.5613164802       27.1633377883
  C        -1.5083006766       15.4411620719       31.9729305397
  C        -1.6283962797       13.1843817493       32.9628145577
  H         5.3926329470       14.0568877216       19.0327250754
  H         6.0268864419       15.2133895061       20.0196948146
  C         7.4556120700       13.7840378575       19.3755522692
  H         3.2111720326        6.7541355047       15.9980921501
  C         3.7332512677        8.3072795702       14.7395700095
  H         3.2373752514        8.4582241944       29.1358404080
  H         2.6499912990        8.7402854782       30.5464341718
  C         4.3976744493        9.8618353121       30.2209678984
  H        -3.6206035123        8.7029192363       26.5365756337
  H        -4.4239107204        9.2920383743       28.1093903823
  C        -4.8407450709       10.3875338689       26.3014972402
  N        -1.3076925657       16.4225579260       31.0611679680
  C        -1.7929095813       16.0051035016       33.1865309523
  C        -2.0409543868       13.7188509094       34.1287208211
  H        -1.7761251972       12.1079825169       32.7541717637
  H         7.8633601381       12.8093232829       19.6068164621
  H         7.5671740253       13.8210741097       18.2826159515
  H         8.2008483610       14.3569076682       19.9469782409
  S         3.9966481394        9.9219403636       14.2821783517
  C         3.8526507960        7.3520340543       13.6274878788
  H         4.7473369793       10.5224867441       29.4828738628
  H         4.2611224254       10.5069920918       31.1062937945
  C         5.4498854988        8.8815564057       30.5417806623
  H        -4.3097168534       10.7464946546       25.4020790280
  H        -5.1901622662       11.2544099720       26.8989447470
  C        -6.0640891174        9.5324296987       25.9125970669
  S        -1.3982679756       17.9077169645       31.6980024016
  N        -1.8526646026       17.4472349665       33.1746378235
  C        -2.1320140847       15.2103254930       34.3229036789
  H        -2.2325486369       13.0489002484       34.9707130265
  C         4.3371696810        9.3707329776       12.7113269003
  N         4.2854878620        8.0349163710       12.5635014755
  O         3.6408198664        6.1490623353       13.6616496362
  H         6.2955283724        9.3556494860       31.1096433868
  H         5.8307585393        8.5971593679       29.5708109928
  C         5.0169713369        7.7206525175       31.4459412528
  H        -5.7764406104        8.6900605318       25.2826632236
  H        -6.3546650089        9.2634749549       26.8978105039
  C        -7.1491562420       10.3863280774       25.1340151343
  C        -2.4527504516       15.8368338837       35.5548857673
  S         4.5121592284       10.3403331200       11.2438921694
  C         4.4399295074        7.3945424244       11.3465682789
  H         5.2346296071        8.0370651895       32.4402357628
  H         3.9858580982        7.4332261428       31.5390179421
  C         5.8280238422        6.5256308484       31.2759899736
  H        -6.6735839180       10.5118157243       24.1613832956
  H        -7.2124167632       11.3855590191       25.6349066531
  C        -8.5095179048        9.7806397411       25.1668184920
  H        -2.3492114577       16.8432380441       35.5013169459
  C        -2.9454933912       15.4320083385       36.8016417549
  H         5.2228328243        7.7625458216       10.6380169491
  H         4.7772049965        6.3916874377       11.5062614695
  C         3.1071771795        7.1192651761       10.6377402596
  H         6.8371891750        6.8502685906       31.0940629099
  H         5.4257517825        5.9370464871       30.5052928942
  C         5.8233217134        5.6119510889       32.5482871223
  H        -9.0610435653       10.1319820097       24.3020825373
  H        -8.4278960305        8.6686270251       25.1062525153
  C        -9.3284335407       10.1569919097       26.3375730233
  S        -3.5558162090       13.9359002885       37.2242619556
  C        -3.0123884627       16.5532250302       37.8110163595
  H         2.8709976144        7.8849635205        9.8527283111
  H         3.2085515283        6.2202911046       10.0503636857
  H         2.2862639753        7.0234238815       11.2804437350
  H         6.5822798059        5.9731973934       33.2153601950
  H         6.0259321779        4.5648670167       32.2309763415
  H         4.8382115928        5.6134387547       33.0060271224
  H        -9.2660305257        9.3674866709       27.0495927879
  H       -10.3929359386       10.0326945008       26.1486791087
  H        -9.0826504248       11.0819443063       26.7480827779
  C        -4.0332630267       14.7896385525       38.7366875005
  N        -3.8128375096       16.1416768256       38.7696863168
  O        -2.7308569480       17.7281847343       37.5849879443
  S        -5.0911785349       14.1693267244       39.9928074047
  C        -4.1421513334       17.0473370582       39.8505411600
  H        -4.3224392708       18.0049297367       39.4303475341
  H        -4.9841232339       16.8637882114       40.4108798195
  C        -3.0354169235       16.9839236339       40.8731910605
  H        -2.1675674579       17.6518421405       40.7578808691
  H        -3.3487739098       17.2844319432       41.8444017446
  H        -2.6257328122       15.9668330139       40.9031079720
