352
i=
  H         4.7154649458        2.0519243300       12.3943083499
  C         3.9596661443        2.7975863616       12.4397441177
  H         4.4600874746        3.8008981644       12.3843878257
  C         3.0157425175        2.7553436736       11.1800864586
  C         3.2699531560        2.7220907040       13.8293887442
  C         3.7156758158        3.0348287067        9.8373781585
  H         2.1615190953        3.4002719773       11.3166506095
  H         2.5818028251        1.7293192170       11.0034382921
  H         3.0758158800        1.6782279151       14.0045539875
  H         2.3290732659        3.1239597067       13.7139352995
  H         3.8773929737        3.1025448511       14.7389022378
  C         4.5695787771        1.8538319487        9.3031542928
  H         2.9436882319        3.2636122778        9.0659689271
  H         4.2708907191        3.9738671881        9.9692505551
  C         5.2928360377        2.2194420647        7.9830760021
  H         3.8274895345        1.0716460052        9.1084154631
  H         5.2219333513        1.4071092426       10.1465583504
  C         6.6240184577        2.9472677728        8.2725635285
  H         4.6564217252        2.8348956721        7.3531777238
  H         5.4759991482        1.2614137271        7.4692473700
  C         7.6228797464        2.1013704177        9.0597352321
  H         7.1417592697        3.0899704318        7.3358676814
  H         6.3602015147        3.8728807242        8.8142048468
  C         8.9751064952        2.8964425234        9.2154732230
  H         7.6849055604        1.1546564978        8.5634244863
  H         7.3541730020        1.8520786588       10.0828027402
  C         8.6744244393        4.2284299575        9.9619526036
  C         9.4778837372        3.6151524163        7.9924007933
  C        10.0810963825        2.1466617049        9.9300117338
  C         9.0663825422        5.3452298947        9.2663889839
  C         8.0221590388        4.6018580242       11.1076186211
  C         9.4621490979        4.9723069757        7.9573271075
  C         9.8778052482        3.0771835589        6.7896493053
  H         9.8528355962        1.5415781156       10.8244931856
  H        10.3850502605        1.5429019419        9.1006600686
  C        11.3227646103        3.0731982952       10.2388677931
  S         8.8598981213        6.8186850128       10.0722710094
  C         8.1695918289        5.9332656952       11.3674489506
  H         7.6775587291        3.7941998156       11.8122812277
  C         9.8287654942        5.6468646227        6.7978203187
  H         9.7338596766        2.0022248811        6.6861029773
  C        10.1466541618        3.7013139560        5.6199474447
  H        11.0781257799        4.0406955087       10.6324869656
  H        11.7955410948        3.2074550606        9.3027341934
  C        12.4403385282        2.4934052095       11.1666985507
  C         7.7291214931        6.6138714958       12.6280577313
  C        10.2661055409        5.0888196397        5.6036949417
  H         9.8585525367        6.7423739924        6.8041839268
  C        10.5759883917        3.3698819468        4.3257585239
  H        13.3315763663        3.1626647303       11.1684694024
  H        12.8582392345        1.5371696378       10.9006692995
  C        11.7701769518        2.3465777980       12.6167388280
  C         7.7353687603        7.9849972778       12.8302781274
  C         7.2736817023        5.7639107860       13.7196813760
  C        10.6794443863        5.8741080535        4.3913994809
  C        10.8013112355        4.5267899400        3.5708539842
  S        10.7633952428        1.9840709244        3.4126993470
  H        11.3363240604        3.2874672437       12.8442052140
  H        10.9175357083        1.6921455128       12.4853837390
  C        12.7581092441        2.0111298343       13.7345018595
  N         7.9617276030        8.9226706073       11.8576347166
  C         7.3113548873        8.5715847898       14.0310388785
  C         6.9237481989        6.2539985690       14.9330494045
  H         7.0659650497        4.7035022198       13.5056639974
  C        11.9763927068        6.6668631643        4.5287308523
  C         9.6127467340        6.6850306022        3.5845222514
  C        11.0997303141        4.2510880380        2.2024974202
  C        11.2371768263        2.9122738593        1.9699711655
  H        13.7069838011        2.5651988211       13.7264516753
  H        12.9658313428        0.9755909973       13.5644551600
  C        12.2160066419        2.2443026429       15.1507415974
  S         7.8312239571       10.4218359971       12.6071573064
  N         7.2283050778        9.9192268806       13.9982404352
  C         6.9550384748        7.7498676864       15.1419856883
  H         6.4719284111        5.5200673264       15.5198647366
  H        11.7782653750        7.2991192645        5.3825562235
  H        12.2155170980        7.2459628860        3.7118043340
  C        13.1162678595        5.7925576253        4.9322398280
  H         9.1894001470        7.5658520065        4.1687837539
  H         9.9801580872        7.0428085065        2.6762238118
  C         8.3619642959        5.8799345451        3.2301024454
  H        11.1757302805        5.1000057316        1.5888844157
  C        11.6718485650        2.2097408244        0.7164185754
  H        11.8361647997        3.2903576097       15.2060893840
  H        11.3737974854        1.5872510108       15.2797168204
  C        13.2697644527        2.0090500055       16.2189287528
  C         6.7267817949        8.3314883288       16.3905165978
  H        12.8426266507        5.2191781821        5.7738221612
  H        13.3467333657        5.0801065024        4.1341536423
  C        14.2779921141        6.7412520970        5.0942228124
  H         7.9128882593        5.3157338628        4.1077104412
  H         8.5298067972        5.0880520397        2.4983654649
  C         7.4124279523        6.7111728232        2.4480127538
  C        11.7118400095        0.7918022423        0.5125860332
  C        12.0101499833        2.9933183056       -0.4985574094
  H        14.1974171378        2.3604748609       15.8258363270
  H        13.4662215573        0.9454501505       16.4481244863
  C        12.9666763373        2.7270831807       17.5679825919
  H         6.7093324039        9.4377799723       16.4159950856
  C         6.3949328321        8.0137609088       17.7367289099
  H        14.1678835184        7.4863099564        5.9298169993
  H        14.3012923774        7.4110704941        4.1456754993
  C        15.6396589129        6.0327110619        5.1886218124
  H         7.3976424040        7.7353055066        2.9452193596
  H         7.6503000967        6.9399232189        1.3783987715
  C         6.0058440545        6.2540295809        2.3062130777
  N        11.2744616521       -0.1075975608        1.4540701234
  C        11.9512576230        0.2007195781       -0.6718554945
  C        12.2582703035        2.3920037818       -1.7657779848
  H        12.1577414243        4.0838627586       -0.4262974261
  H        13.6016884322        2.4963312584       18.3652878175
  H        11.8920123068        2.5944262472       17.7936512063
  H        13.0489066321        3.8817412804       17.4276831065
  S         6.0389076112        6.4328665600       18.3021063249
  C         6.1743301584        9.0683916310       18.7564434874
  H        15.7723666324        5.2874108840        4.3657945904
  H        16.4382582857        6.7890498532        4.9076195261
  C        15.9750518208        5.4232391814        6.5523964803
  H         5.6831737190        5.8352384170        3.2199691010
  H         5.9183832927        5.4497856483        1.6396499272
  C         5.1493473893        7.3996428759        1.7235845024
  S        11.3768408668       -1.5974661255        0.8636189630
  N        11.8642242794       -1.1556759490       -0.6480472081
  C        12.2831838181        0.8800811439       -1.8506332859
  H        12.3719126773        2.9629651410       -2.6453403997
  C         5.8843337424        7.0922891937       19.8842606074
  N         5.8845258485        8.4681028441       19.9218519740
  O         6.2882391336       10.2566826802       18.6084012901
  H        15.7134124079        5.9760263097        7.4482695728
  H        15.6058064591        4.4094733285        6.6396162767
  C        17.4314086789        5.2063173482        6.6262400175
  H         5.5412903061        8.0058670021        0.8560284890
  H         4.3808961936        6.8541700944        1.0969228597
  C         4.4872296016        8.4061176783        2.7414297334
  C        12.5938423163        0.1612974115       -3.0368482518
  S         5.6338802426        6.2188118684       21.4021052722
  C         5.9771349358        9.2660821548       21.1248284054
  H        17.5283311548        4.3091106127        7.2251665308
  H        17.8897149388        4.7526805433        5.7363773256
  C        18.4525828000        6.3433811697        7.0251838544
  H         5.2173026043        9.1400855230        2.9278817206
  H         4.3482673641        8.0405096733        3.8082561594
  C         3.2678133833        8.9703284842        2.0173016097
  H        12.4085203259       -0.9584317073       -3.0308678213
  C        13.0933914446        0.5029623877       -4.2562012324
  H         5.1956653172        8.9238134743       21.8636490529
  H         5.8645208747       10.2448482756       20.9037545173
  C         7.3241248660        9.0788458347       21.7316662330
  H        18.0697435431        6.7673502939        7.9561869461
  H        18.4173315690        7.1090912969        6.2521994752
  C        19.7981651893        5.8149803947        7.2465199974
  H         2.4846301923        8.3183618223        1.8811981804
  H         2.9006559382        9.6928126469        2.7613618195
  C         3.4533105195        9.7693919067        0.7644120822
  S        13.8062283897        2.0191137196       -4.6819722937
  C        13.3432381656       -0.6051534807       -5.1695614625
  H         7.1915541587        8.6357815002       22.7429170758
  H         7.7719976601       10.0295750957       21.8726752316
  H         7.9872759165        8.4270832507       21.1744153644
  H        20.3797600487        6.5831784248        6.7926522921
  H        20.1057345707        5.7640618116        8.2407910220
  H        19.8352806742        4.8952013952        6.6192195357
  H         3.1661250876       10.8643191967        0.9186574036
  H         4.4750228771        9.6779577404        0.3819775495
  H         2.8594782704        9.3642387455       -0.0647064883
  C        14.2032291372        1.3176963390       -6.1928354894
  N        13.9290152005       -0.0094650280       -6.2777548408
  O        13.0463733429       -1.7901768494       -5.0506408969
  S        15.0002191153        2.1453377026       -7.5518107518
  C        14.0270761565       -0.7822372194       -7.4711217316
  H        14.2502450394       -1.7378227246       -7.1219680901
  H        14.7806026638       -0.3765020056       -8.1189764010
  C        12.6572331539       -0.7840965240       -8.1971580141
  H        11.8033430742       -1.0938384208       -7.6100022571
  H        12.8262114177       -1.5131705337       -8.9197996787
  H        12.3289696855        0.1510491947       -8.7397936699
  H        -1.7649633598       15.6570257459       15.5105405071
  C        -2.5129302544       15.1513528989       16.1815335512
  H        -3.1246721796       16.0137131542       16.5948074516
  C        -1.7319496346       14.5192982838       17.3058249141
  C        -3.2658346557       14.1013223020       15.4045154551
  C        -2.5058158748       14.1471650862       18.6014979390
  H        -1.0325068306       13.6793097374       16.9716347440
  H        -1.0584719628       15.3144378472       17.6089633382
  H        -3.7364640926       14.6484071015       14.5418298564
  H        -2.5979242010       13.3115780085       15.0006462113
  H        -4.0740004686       13.7122637954       15.9914766725
  C        -1.6633690604       13.6144277494       19.7267341311
  H        -3.3296132114       13.4171014284       18.3655390095
  H        -3.0104585063       15.1219715972       18.8797185580
  C        -2.3433772671       13.3965815402       21.0524288593
  H        -1.3179203170       12.5990057142       19.4743705998
  H        -0.8141922107       14.3156830697       19.7342857505
  C        -1.3488948182       13.0474024877       22.1966472304
  H        -3.0906684369       12.5958135464       20.9893421175
  H        -2.8694850810       14.4066899623       21.3810932954
  C        -0.1638578591       13.9173024480       22.5334588002
  H        -1.8783259239       12.7621685662       23.1664120444
  H        -0.9803234440       12.0663236672       21.8729288021
  C         1.0627094140       13.2664939039       23.2508753144
  H         0.2225493225       14.4397144412       21.6381670998
  H        -0.5119368360       14.9144536525       23.0603365414
  C         1.4915007551       11.9689053029       22.5522309675
  C         0.6569761603       12.5321840647       24.4657916547
  C         2.2696336327       14.2924287774       23.3079077152
  C         1.1633601122       10.8082008748       23.3116794896
  C         2.1430466220       11.6110405212       21.3670620107
  C         0.6418435232       11.2147724686       24.5425464286
  C         0.1584202404       13.1534029055       25.5724676818
  H         2.3822950960       14.6682534263       22.2710866816
  H         2.0099405160       15.0857920969       23.9938823127
  C         3.5154931322       13.7565876456       23.8913455072
  S         1.5000142774        9.2917947145       22.5868173220
  C         2.0601819303       10.2048204195       21.1474153690
  H         2.5263234165       12.4877313926       20.7667648044
  C         0.2415969313       10.5089983468       25.6335857195
  H         0.3032716495       14.2248515014       25.5538427408
  C        -0.2713301628       12.5323408747       26.7021934031
  H         3.7839501281       12.7740678058       23.4975881589
  H         3.2435786081       13.4326162656       24.9355753170
  C         4.7616206817       14.7703273344       23.9666814727
  C         2.5342499095        9.5217171773       19.9295906431
  C        -0.2839264062       11.1283672722       26.7675234289
  H         0.2237379288        9.3859037109       25.6970602521
  C        -0.8028438811       12.8758163726       27.9199568851
  H         5.6826507282       14.3620181886       24.4643034462
  H         4.4459596421       15.6673355808       24.3675643636
  C         5.1855151964       15.2248067890       22.5635949963
  C         2.3960129853        8.1019338917       19.6998325238
  C         2.8505211034       10.4023172735       18.7251951581
  C        -0.7730426108       10.4014288495       28.0104009139
  C        -1.0102792084       11.7552305402       28.7139937051
  S        -1.0842323812       14.3438587886       28.7216314188
  H         5.7487864378       16.0654878265       22.7196921978
  H         4.3989646555       15.5296727705       21.8590049496
  C         6.0224406903       14.1039745383       21.9226476694
  N         2.0051078283        7.1319266501       20.5990880780
  C         2.6353871328        7.5750217624       18.4501989140
  C         3.1370977093        9.8144324153       17.5219343159
  H         3.1257250391       11.4091646755       18.9675321634
  C         0.3924826724        9.6582233553       28.6102784294
  C        -2.0626430589        9.5081992890       27.7401726417
  C        -1.2879303888       12.1486881552       29.9741125039
  C        -1.4024353011       13.5097113678       30.1279143023
  H         7.0031669289       14.2870966899       22.1965558662
  H         5.6250610867       13.1805900645       22.1590061262
  C         5.8670216524       14.0361546449       20.3987747566
  S         2.2156263195        5.6458622963       19.9548029866
  N         2.4890116768        6.1720984201       18.4408135312
  C         2.9661285876        8.3122214370       17.3114605155
  H         3.5203958151       10.4536026940       16.7204080873
  H         0.9768682612        9.2684445928       27.8299055223
  H         0.1129883218        8.7177312505       29.0985456674
  C         1.4299495393       10.3196218108       29.3737830152
  H        -1.8457824644        8.8363063637       26.9579178377
  H        -2.3319282108        8.9056480182       28.5836987738
  C        -3.2051199112       10.4117867820       27.4349046129
  H        -1.5439903370       11.4307889061       30.7704228459
  C        -1.7975129153       14.1910338381       31.3842366745
  H         5.3583369712       14.9467559735       20.0267271799
  H         5.0268472338       13.2685321824       20.1806688068
  C         7.1082324113       13.7038755117       19.5664512610
  C         3.1110931472        7.5898005431       16.0396639310
  H         1.7644352897       11.2715511452       28.9758411834
  H         0.9951624710       10.5768973663       30.3680607989
  C         2.4515804550        9.3467351966       29.8911704830
  H        -2.8894738163       11.0456829749       26.6150151481
  H        -3.3699763523       11.0356781432       28.2782692522
  C        -4.4769900457        9.5445955910       27.1014580026
  C        -1.9061548628       15.6166672678       31.5990158613
  C        -2.1939785971       13.4143008298       32.5942742548
  H         7.8508388980       14.4278022754       19.6609940633
  H         7.5280311023       12.7159860239       19.7347802609
  C         6.7854523634       13.6159014196       18.0796369738
  H         2.7957889113        6.5890957986       15.9696522190
  C         3.4813364821        8.0184467979       14.8326376860
  H         2.8119288181        8.8234905416       28.9988390134
  H         2.2024684931        8.6111668791       30.5665131807
  C         3.5928856550       10.1116822746       30.5722412477
  H        -4.2797984626        9.1130718493       26.1267795415
  H        -4.5009546066        8.7426088577       27.8384413424
  C        -5.7186787230       10.3992099453       27.1271100825
  N        -1.5546214119       16.4979989977       30.5930194057
  C        -2.3279925250       16.2041039028       32.7989842476
  C        -2.4990411331       14.0346244547       33.8077292857
  H        -2.2286040522       12.3698914518       32.7332665195
  H         7.8231469450       13.3395797451       17.6717809077
  H         6.0987264963       12.8172652030       17.8720849057
  H         6.5176714112       14.5901393864       17.5295740422
  S         3.8448247895        9.6532438251       14.4119290618
  C         3.5781579056        6.9804261762       13.7320750546
  H         3.8834718526       11.0344605533       30.0080569605
  H         3.1893531531       10.4489637662       31.5390074047
  C         4.8964041413        9.2885025146       30.7041617456
  H        -5.5622781451       11.3233961359       26.6811605986
  H        -5.9287811660       10.4621886765       28.2360461990
  C        -6.9555063159        9.7446974709       26.5183764852
  S        -1.8775562592       18.0178221716       31.1469651460
  N        -2.5434495718       17.5936627169       32.5806193079
  C        -2.6471324991       15.4798388029       33.9339922906
  H        -2.7503610932       13.4105672517       34.6626725495
  C         4.0569101168        8.9917762358       12.8166533658
  N         4.0488031488        7.6817208562       12.5848896034
  O         3.3330288484        5.7520421522       13.8903576329
  H         5.5207402949        9.6810416055       31.5544432734
  H         5.4980542298        9.5472247951       29.8207746972
  C         4.7009441343        7.8508940940       31.2069799267
  H        -6.6169665781        8.7936895553       26.1606140535
  H        -7.6460388313        9.6217823338       27.3451900011
  C        -7.6652157801       10.6058985002       25.4522667155
  C        -3.0540290602       16.2025559817       35.1395913590
  S         4.6335625253        9.9716342787       11.4918484658
  C         4.3421511952        7.0615554566       11.3332827903
  H         4.4570648636        7.8809743320       32.2628903886
  H         3.9466627066        7.2698100092       30.7123753904
  C         6.0802976894        7.1778431306       31.1293544893
  H        -7.2840718859       10.5201093859       24.4732457795
  H        -7.4424324574       11.6056232864       25.8235965383
  C        -9.1614085387       10.4447535064       25.5714954779
  H        -3.1551770907       17.2383658154       34.9721112450
  C        -3.4359071423       15.8247574396       36.4499564043
  H         5.1716651206        7.4055802109       10.7482069919
  H         4.7140793626        6.0116942578       11.4983197167
  C         3.0815696697        7.0228809085       10.4282094825
  H         6.1905217210        6.3750404786       31.8657666002
  H         6.8535897096        7.9205062164       31.3452625520
  C         6.4105173271        6.7786451546       29.7647393088
  H        -9.6565920781       10.6638660895       24.6461513101
  H        -9.3467320387        9.4581988721       25.6987613968
  C        -9.8489085479       11.3681595718       26.5974333116
  S        -3.7914674213       14.2633062113       37.0352521112
  C        -3.4074171945       16.9684739483       37.3501967771
  H         3.1192926208        6.2065422742        9.6561703001
  H         2.2171458481        7.1297443672       11.0769893873
  H         3.0200949744        7.8669651341        9.7381946700
  H         7.2716628295        6.0974016490       29.7537401203
  H         6.4741961614        7.5585144716       28.9921220279
  H         5.6572045626        6.0563175057       29.3531281002
  H        -9.7179386069       10.9595055375       27.5739254130
  H       -10.9466249424       11.4254764954       26.5921217451
  H        -9.4246391805       12.3616952749       26.6199554207
  C        -4.1200925137       15.1747336437       38.5858597088
  N        -3.8695233740       16.5191519798       38.5582102232
  O        -3.2176064459       18.1347222719       37.0202928406
  S        -4.3445768158       14.4023184565       40.1336864499
  C        -3.8392720846       17.4065455547       39.7208017720
  H        -4.1215736824       18.3432345089       39.3681283212
  H        -4.4278321519       17.1007530883       40.5987663354
  C        -2.3605952814       17.6093722931       40.0663410937
  H        -2.1085471592       18.6765438391       40.2816735556
  H        -2.1605520256       17.0757080714       40.9634304334
  H        -1.6485950249       17.2186694264       39.4077916655
