352
i=
  H         3.6601608602        3.6448549656       12.4010848443
  C         3.0791090895        2.7682515385       12.4130499420
  H         2.2156944713        3.0729091026       13.0715662768
  C         2.6676111724        2.3175937004       10.9830121398
  C         3.9130455520        1.7032914893       13.1000226572
  C         3.7086051675        2.5388660690        9.8817276179
  H         1.8067629802        2.9766843842       10.7907125772
  H         2.2634661913        1.2892831148       11.0280310980
  H         3.1797680841        0.9778195091       13.5759548427
  H         4.5013659822        2.0719992108       13.8839595108
  H         4.6419311244        1.1899002956       12.4719007624
  C         4.4685812574        1.3090410992        9.3872945113
  H         3.2661119692        2.9837835323        8.9787122305
  H         4.4689021280        3.2185471714       10.3293095470
  C         5.1316704572        1.6009390527        8.0236364697
  H         3.5860015851        0.6715246717        9.3299058389
  H         5.1158831344        0.9465840372       10.1690339372
  C         6.4523052154        2.4249381920        8.2834200736
  H         4.4405035859        2.1798465214        7.4025418299
  H         5.3991666287        0.6592139962        7.5177512677
  C         7.5641350110        1.6598685861        8.9982240057
  H         6.8214456159        2.8415852728        7.3599365370
  H         6.1907904040        3.3138025045        8.9430349564
  C         8.8242014578        2.5336098118        9.1874212167
  H         7.7429046197        0.8266673927        8.2552962843
  H         7.1879567964        1.2799928804        9.9606945667
  C         8.2729135561        3.8275206556        9.8759578206
  C         9.1824654705        3.3650829667        7.9777985700
  C        10.1519149462        1.8215797071        9.8181979342
  C         8.3455794519        5.0093804568        9.1259734172
  C         7.6464685130        4.0762513422       11.0687024270
  C         8.9217032756        4.6755538307        7.9403156757
  C         9.6550944415        2.7844683107        6.7738243121
  H         9.9939416679        1.3811034658       10.7990282850
  H        10.5597696017        1.0362123723        9.1993868880
  C        11.2909422102        2.7087469540       10.2282569851
  S         7.6859373314        6.4082202804        9.8451763193
  C         7.4877419518        5.4499878730       11.2733378430
  H         7.4703722227        3.2117438598       11.7312683125
  C         9.3132402089        5.3597291591        6.8143999163
  H         9.7814430202        1.6982865651        6.7685978231
  C         9.9794868439        3.4917905736        5.6478487235
  H        10.8575966777        3.5384360710       10.7448769386
  H        11.8118192235        3.0251664587        9.3360407844
  C        12.4052133659        2.2250071187       11.1794803430
  C         7.1328970154        6.1116701476       12.6262632492
  C         9.8794892543        4.8508642792        5.6123948603
  H         9.1714419328        6.3973375276        6.8141184065
  C        10.3459806579        3.1678004590        4.3709151162
  H        13.1888543573        2.9692251385       11.1212524535
  H        12.7854409302        1.3306111980       10.7743368522
  C        11.8767732683        2.1185904105       12.6294523032
  C         7.3286068300        7.4883223655       13.0034141545
  C         6.7580179819        5.2495608412       13.7969116958
  C        10.3221025382        5.6483636914        4.3199756760
  C        10.6387657014        4.3023106146        3.6253541915
  S        10.8161549530        1.6700074054        3.6091589232
  H        11.4123797870        2.9828510857       13.0290243902
  H        11.0873498682        1.3839966528       12.6193938141
  C        12.9119550456        1.9435463031       13.7277900965
  N         7.6321521047        8.4543316610       12.0457049522
  C         7.1849312997        8.0024797110       14.2404989695
  C         6.6492278726        5.7256598760       15.0987602202
  H         6.3571850847        4.2622994217       13.6272991167
  C        11.5969934614        6.5834080406        4.4162291544
  C         9.0435056051        6.3013629438        3.7368521062
  C        11.2252433185        3.9621036669        2.3766509908
  C        11.3107687434        2.5871787210        2.1538141002
  H        13.5102414416        2.8517138817       13.7000793148
  H        13.5618227169        1.0381564011       13.4763075558
  C        12.2992246761        1.8436494816       15.1287893912
  S         7.6516650041        9.9040817635       12.7820206317
  N         7.2562312321        9.4317520279       14.2918923079
  C         6.8061169659        7.2018480427       15.3745018045
  H         6.2378751655        5.0008771881       15.7741738167
  H        11.3739797362        7.5571415573        4.9541508675
  H        12.0005404816        6.9096231609        3.3816422053
  C        12.6588801103        5.9162798810        5.2011212921
  H         8.6573280451        6.9626512811        4.5412910276
  H         9.3152690276        6.8701946667        2.8279120201
  C         7.9447345818        5.2697572522        3.4581109921
  H        11.4514860093        4.7331328250        1.6521407017
  C        11.7534992185        1.8920708671        0.8874188554
  H        11.8383515710        2.8264693126       15.3083347467
  H        11.4715828456        1.1101506068       15.1335489248
  C        13.3835553404        1.4388540204       16.1508624189
  C         6.6379759443        7.8848765619       16.6382870678
  H        12.2758076273        5.7283112308        6.1784890489
  H        12.8647256754        4.9442947761        4.7373383637
  C        14.0095009511        6.6086063700        5.2785046346
  H         7.6836366023        4.6758651457        4.3283392868
  H         8.2055648191        4.5415126640        2.6875337990
  C         6.5705603541        5.8150260817        3.0603331584
  C        11.7609556561        0.4881484298        0.7313762583
  C        12.1223019020        2.6445428005       -0.3322816747
  H        14.4019664109        1.3132286941       15.7045713279
  H        13.2797465665        0.4021241851       16.5733362702
  C        13.5058936439        2.5674847378       17.2156634347
  H         7.0583083544        8.9152706992       16.6886833758
  C         6.3127977630        7.3879166517       17.9047185361
  H        13.7741113265        7.3365223994        6.0303906693
  H        14.3470194755        7.1621235428        4.3725609402
  C        15.1380491330        5.6806746630        5.7313913718
  H         5.8230770692        4.9652461703        3.0704330933
  H         6.2037789228        6.4901641574        3.8590556177
  C         6.6143711138        6.7201142770        1.7423625984
  N        11.5612015662       -0.4115581803        1.7562154112
  C        12.0339038770       -0.1923374885       -0.4084899817
  C        12.3047289422        2.0232616222       -1.5276760446
  H        12.0948252684        3.6989525222       -0.2884957751
  H        14.4300373875        3.2417863375       17.0319092897
  H        13.6914663051        2.0453175657       18.1675268786
  H        12.5646064171        3.1823200090       17.3510731637
  S         6.0049264029        5.7905470197       18.4029123952
  C         6.2062002713        8.4084721273       19.0056746442
  H        14.8149991134        4.8328125244        6.2830336493
  H        15.6022851017        5.3651854965        4.8401982302
  C        16.1234563950        6.4765197271        6.5215973381
  H         7.1340148971        6.1630162452        1.0350850224
  H         7.2075264478        7.5512447678        2.0900718503
  C         5.1359253561        7.0446680923        1.2513226570
  S        11.8215845647       -1.9651750876        1.3113705662
  N        12.0696526591       -1.5924966044       -0.2394200027
  C        12.3565996644        0.5371490458       -1.6027371099
  H        12.5481779816        2.6838365922       -2.3825591137
  C         5.7810512930        6.5632220861       20.0155919736
  N         5.7680067540        7.8780488051       20.1472744933
  O         6.2534405727        9.6317172827       18.8417455567
  H        16.6441751630        7.1290470677        5.9043365865
  H        15.6284838238        6.9872146530        7.3354780289
  C        17.0703881169        5.3560391446        7.1444222939
  H         5.2383664330        7.4915045996        0.2730792563
  H         4.5290513438        6.1451938763        1.0530981852
  C         4.3643164710        7.9072485613        2.2424814039
  C        12.6337442267       -0.2390138621       -2.8047506203
  S         5.3194082260        5.6109734051       21.4385456562
  C         5.5180575594        8.6812191923       21.3519373620
  H        16.5540274281        4.8962988817        7.9882728106
  H        17.2604143383        4.5519877712        6.3770579367
  C        18.4004749794        5.8381816582        7.6600735245
  H         5.1454020159        8.4083482742        2.9058159537
  H         3.7018292996        7.3346340076        2.9061407025
  C         3.6677359595        9.0098856482        1.4490487603
  H        12.0978907663       -1.1402346663       -2.7817784272
  C        13.1968142565        0.0392715661       -4.0210579046
  H         4.9701545759        8.1638669723       22.1114697906
  H         4.9652125342        9.6285082130       21.1927251378
  C         6.8999813577        9.0509044981       21.9286778590
  H        18.8328509161        5.0352019158        8.2914229389
  H        18.1483929591        6.7244164671        8.3141541584
  C        19.4347158975        6.3228121611        6.6504593634
  H         4.3514640160        9.4110588048        0.7245933191
  H         2.8957821109        8.4780627358        0.9311907758
  C         3.0805907056       10.1107816609        2.3741301368
  S        13.7918947825        1.6490687417       -4.4259783432
  C        13.2002887734       -0.9701674687       -5.0732964618
  H         7.7371270343        8.9923565319       21.2829598893
  H         7.1302797100        8.4360495701       22.7335506453
  H         6.7974699722       10.0688333997       22.3955347299
  H        19.2752331428        7.3686577865        6.5692976331
  H        20.4802957384        6.0610963149        6.8073327069
  H        19.0521201578        5.9593440285        5.6651199847
  H         3.5961594918       11.0563537571        2.1093568214
  H         2.0441612884       10.3016515269        2.2210411185
  H         3.1658937285        9.8436425994        3.4223948837
  C        14.2849056052        0.8194056484       -5.9779463067
  N        13.9632633610       -0.5027913240       -6.1205926447
  O        12.7553165581       -2.1241098195       -4.9688880022
  S        14.7844589234        1.6456440064       -7.4644205573
  C        14.1523689358       -1.2829365732       -7.3498955858
  H        14.3219691584       -2.3719101447       -7.1448582074
  H        15.0734476839       -0.9851708528       -7.8350539543
  C        12.9346562833       -1.1374901130       -8.2708771801
  H        13.3574954197       -0.8635633580       -9.2014675999
  H        12.2904090904       -0.2710432142       -8.0457650755
  H        12.3369946093       -2.0255524473       -8.4421573013
  H        -2.4177268733       12.3309285592       17.0643507115
  C        -2.7229173177       13.2280706278       16.6370234301
  H        -1.8444016680       13.3828462743       15.9662660927
  C        -2.7304385648       14.3335477898       17.7363771266
  C        -3.9307513576       13.0817507888       15.7667560130
  C        -3.2453368103       13.8259941612       19.0718460239
  H        -1.7579371507       14.7554946908       17.9395782753
  H        -3.3317800897       15.1661532729       17.3336035092
  H        -4.7908451466       13.7016092525       16.1682044820
  H        -3.8238583423       13.2541449441       14.7105853583
  H        -4.3948114773       12.1149243953       15.7754927036
  C        -2.2036784073       13.0631338672       19.9030828822
  H        -4.2365970882       13.3295592301       19.0710454023
  H        -3.4014727773       14.7543899102       19.6493997341
  C        -2.6128804291       12.8566169128       21.3791109118
  H        -2.0492594346       12.0986351081       19.4591070977
  H        -1.3395363823       13.6897296573       19.8093703312
  C        -1.5660829681       12.3929149112       22.3503052397
  H        -3.4383264152       12.1266557394       21.2756851041
  H        -2.9772431528       13.7861396760       21.8074668914
  C        -0.3938898304       13.3023131353       22.5579989664
  H        -2.0704946892       12.3432491819       23.3340191974
  H        -1.3266501965       11.3694936986       21.9868894753
  C         0.7916332967       12.7236258728       23.3535721285
  H         0.0017853235       13.6438925286       21.5920091872
  H        -0.6611995153       14.1563360376       23.1107569713
  C         1.2464777186       11.4539052214       22.6700281284
  C         0.3976605832       11.9729546436       24.5729439723
  C         1.9960047891       13.7557390535       23.4805326157
  C         0.9911974127       10.2523544464       23.3958417748
  C         1.7957173365       11.1790905312       21.3916979299
  C         0.4403188560       10.5859695852       24.6324213715
  C        -0.1206668199       12.6389205005       25.7160798243
  H         2.3719149948       14.1904715993       22.5695216814
  H         1.7035087447       14.4666115746       24.2255298432
  C         3.3225750008       13.1261805774       24.0850454494
  S         1.3252869784        8.7856519591       22.5589016820
  C         1.8711620507        9.8127919068       21.1390493765
  H         2.0877279142       11.9937559901       20.7538176885
  C        -0.0781980299        9.9242941376       25.7230797912
  H        -0.1376882998       13.7265605124       25.6845641730
  C        -0.5070879284       11.9854988328       26.8583954080
  H         3.5933415086       12.2539447810       23.5420242201
  H         3.0747514357       12.6668916806       25.0766838765
  C         4.5286744681       14.0303087650       24.3368885046
  C         2.3851886249        9.2745047238       19.8249826547
  C        -0.4926425346       10.6540053663       26.9027794553
  H        -0.2455753641        8.8830899265       25.7328976035
  C        -0.9247017978       12.3838123711       28.0991474866
  H         5.2384496060       13.5740886635       25.0167458985
  H         4.3161977096       15.0182063061       24.6383043008
  C         5.3853358005       14.2238665469       23.0535200233
  C         2.5687535531        7.8924613053       19.6176119061
  C         2.7830248643       10.1409505126       18.6599043411
  C        -1.0069055340        9.9553629397       28.1367157165
  C        -1.2537636299       11.2592259020       28.7911139382
  S        -1.1359370932       13.8616134865       28.8543974622
  H         6.2987477942       14.7389225296       23.3173123015
  H         4.7810357743       14.9288873122       22.5116290001
  C         5.6399955172       13.0528334391       22.0740217500
  N         2.3786127568        6.9125570087       20.5777669821
  C         2.7928276148        7.3455884317       18.3432873987
  C         3.0663721610        9.6442609986       17.3959924608
  H         2.7024712666       11.1578405150       18.7879622110
  C         0.1724201464        9.2305222329       28.9102517642
  C        -2.2916831419        9.0920579260       27.9714656829
  C        -1.7619722736       11.6277640396       30.0099520729
  C        -1.5671229498       12.9417804095       30.2139952789
  H         6.7128386084       12.9095070321       22.1830976262
  H         5.2586005046       12.0602900977       22.4121087215
  C         5.3166928773       13.3868100623       20.5443225492
  S         2.3859502813        5.4465991448       19.7782950431
  N         2.8270680794        5.9815543533       18.3024844008
  C         3.0687630590        8.1619705241       17.2019293533
  H         3.2268312548       10.3893835088       16.6787862502
  H         0.4672902195        8.3866454781       28.2054999484
  H        -0.3520224498        8.8160675064       29.8056570014
  C         1.4009981985       10.0622113890       29.3066533578
  H        -2.1459607264        8.4443018015       27.0507757644
  H        -2.3978740014        8.4065386043       28.8311663824
  C        -3.5221956007        9.8825003884       27.7017859536
  H        -2.0598189040       10.9010396573       30.7616012803
  C        -1.8323901020       13.6371760928       31.5201914165
  H         5.1043364061       14.4483293809       20.3601429152
  H         4.3889968219       12.8018354058       20.3137137440
  C         6.2933367054       13.0525226920       19.4688214910
  C         3.3887085789        7.5016014965       15.9897741928
  H         1.8689006960       10.4826136555       28.4068681449
  H         1.1359805177       10.9230571410       29.9128138575
  C         2.3934601417        9.1265351478       29.9361396580
  H        -3.2551538092       10.6439872688       26.9763497126
  H        -3.7577935302       10.4875474764       28.6153014651
  C        -4.6621563428        8.9414651371       27.2990233358
  C        -1.8854472920       15.0763364751       31.7735186736
  C        -1.9537057947       12.8198439913       32.7506524496
  H         6.7238518343       14.1008476678       19.2434436260
  H         7.0363936678       12.3481462263       19.7567787463
  C         5.7262843718       12.5047890917       18.1613657934
  H         3.1353193289        6.3845470491       16.0137849958
  C         3.6201588481        7.9484579264       14.7020774553
  H         2.7918238687        8.5098728705       29.0707394929
  H         1.7663605258        8.5352602190       30.6036826152
  C         3.5607291565        9.8592229966       30.6189210422
  H        -4.1700636694        8.4205464093       26.4963602243
  H        -4.8636435296        8.1926706390       28.0520582478
  C        -5.8445347437        9.7758316667       26.8923171534
  N        -1.8108785421       16.0632988761       30.8502244779
  C        -2.0659031443       15.6322154428       33.0229833375
  C        -2.1168514677       13.3944284514       34.0353321060
  H        -1.7611622288       11.7732171062       32.7185311948
  H         4.8108366837       12.0399186220       18.4337949372
  H         5.6777902462       13.2932632998       17.3451599055
  H         6.3393718538       11.6454445729       17.8427088254
  S         4.2392568997        9.4414207904       14.1266885460
  C         3.6031297513        6.8693466867       13.6257015084
  H         3.8048837134       10.8475496113       30.2576658688
  H         3.1728799437        9.9453628789       31.6598680538
  C         4.8409356130        9.0902002827       30.7691890354
  H        -5.7128742203       10.6946494988       27.4506360418
  H        -6.7951885607        9.4020020674       27.2309048937
  C        -5.9294332903       10.1114838463       25.3480161359
  S        -2.0080115353       17.5362160017       31.4662979673
  N        -2.1621829400       17.0371321596       33.0364658521
  C        -2.3208785098       14.8950832239       34.2087229709
  H        -2.2291241051       12.7147973681       34.8686002496
  C         4.1141778710        8.7377889956       12.4989875695
  N         4.0300288933        7.3619506141       12.4425234855
  O         3.2418969924        5.7922509755       13.8253742098
  H         5.5597778149        9.7236598771       31.3049161701
  H         5.3343698905        8.9480605212       29.7891915784
  C         4.7599316515        7.8542577666       31.5202710866
  H        -4.9570304064       10.4782850177       25.1286263567
  H        -5.9410405257        9.2193248593       24.8015588398
  C        -7.0795726073       11.0310882165       24.9640154065
  C        -2.6796506816       15.5934792400       35.3867401248
  S         4.5066220770        9.5814606248       11.1039691775
  C         3.7999206151        6.7470028694       11.1883454063
  H         4.9445516672        7.9743138723       32.6054807451
  H         3.7407820466        7.4633119108       31.6828624356
  C         5.6484223076        6.7656362774       30.9861192207
  H        -6.8929788798       11.1780002663       23.8870444650
  H        -6.9131978262       11.9786703081       25.4725791115
  C        -8.4647866465       10.4060530010       25.0930985608
  H        -2.4618742602       16.6997684284       35.3230365407
  C        -3.3222557981       15.2523731927       36.5230739660
  H         4.3879172734        7.1340894834       10.3744315402
  H         3.9178778093        5.6767383486       11.2341641753
  C         2.3294319914        6.9091121912       10.7840551393
  H         6.6646928008        7.1685527061       31.0249739561
  H         5.4683485585        6.6425300582       29.9243590286
  C         5.6759965532        5.4724650732       31.7420641519
  H        -9.1767975642       10.6935787910       24.3063572987
  H        -8.5187660011        9.3180569049       25.0307668776
  C        -9.1113307285       10.8693655230       26.2577691364
  S        -3.8326690688       13.6564239459       36.9758750626
  C        -3.6047950351       16.3007423128       37.4990592527
  H         2.0897706999        6.3819852773        9.8097141319
  H         1.7574272306        6.3538353821       11.4783904457
  H         1.9362000754        7.9048282593       10.5739907600
  H         6.5115987385        4.8469004184       31.4466361583
  H         4.8405795179        4.8801020506       31.5281605076
  H         5.7960694870        5.6531905958       32.8057102687
  H        -9.2209810718       11.9234707014       26.2017801689
  H        -8.6538162408       10.5740347453       27.2656028023
  H       -10.1393000185       10.4818343248       26.1745032507
  C        -4.5896388537       14.4796024530       38.3842425499
  N        -4.2981491573       15.7629906603       38.5213950332
  O        -3.2063053666       17.4609425019       37.3693290573
  S        -5.6101016649       13.7544230535       39.5397776297
  C        -4.5933234913       16.4887490156       39.7357904087
  H        -4.5873312503       17.5602882020       39.5619166227
  H        -5.6383248838       16.2314139775       39.9435337970
  C        -3.5918258063       16.0714533596       40.8099371853
  H        -4.0083663757       15.4897003832       41.6684023796
  H        -2.8414001860       15.3956431199       40.3595262137
  H        -3.1965242739       17.0690487207       41.1193104511
