352
i=
  H         3.3276027278        1.1229550914       13.8731369881
  C         4.0417991823        1.8820897494       13.5130043328
  H         4.9596769811        1.3065271333       13.2687206396
  C         3.4172303682        2.5421280865       12.2473513501
  C         4.4368961147        2.8060848334       14.6428260116
  C         4.4067909225        2.8652153803       11.1785203081
  H         3.1138729433        3.5123392405       12.6794035879
  H         2.4244999783        2.1930812909       11.8571134699
  H         3.6409584978        3.0077727693       15.3895993268
  H         4.5327350706        3.8629071968       14.2614190889
  H         5.2653136364        2.3631628800       15.2074371043
  C         4.9056784830        1.5741100854       10.3877349125
  H         4.1594256251        3.7082218361       10.5731461676
  H         5.2498176825        3.3903836580       11.6674630190
  C         5.5661216684        1.9269010942        9.0021435830
  H         4.0485245686        0.9355053337       10.1540701869
  H         5.5545255267        1.0063998030       11.1038314988
  C         6.8073532594        2.8303345565        9.1749287567
  H         4.8040349961        2.4326282275        8.3930927027
  H         5.8428217609        0.9924705717        8.4851278497
  C         8.0508125697        2.0290680373        9.3729712675
  H         6.9697077623        3.4135564901        8.2885712468
  H         6.5589956619        3.5077800163       10.0174076040
  C         9.4121188868        2.8891324984        9.4241178787
  H         8.1781939902        1.3384279923        8.5439809372
  H         7.9331946568        1.4512135289       10.3159225142
  C         8.9583616342        4.1907303715       10.0758590971
  C         9.7787552252        3.5247422467        8.1600755166
  C        10.5414960299        2.2100322960       10.2630408897
  C         9.1336416949        5.2532217519        9.2671583529
  C         8.5300013392        4.5110259447       11.3467837307
  C         9.5472184679        4.8413495326        7.9962146755
  C        10.2523185248        2.8843116235        7.0115184301
  H        10.1683442563        2.1030767306       11.2464162569
  H        10.8700371493        1.2090975456        9.8231563380
  C        11.8601397005        3.0669153141       10.3697829285
  S         8.6461686758        6.7478577195        9.8692912730
  C         8.2349754897        5.8917387360       11.3617523571
  H         8.4457397499        3.7285764420       12.1251263459
  C         9.8371877441        5.3730321586        6.7845028661
  H        10.2886722387        1.8882324131        7.1747479759
  C        10.4672482096        3.4306227408        5.7776692176
  H        11.5708712325        3.9897693503       10.6975736333
  H        12.4127084795        3.2069921030        9.4079162237
  C        12.8173472118        2.5780083165       11.4494750724
  C         7.7165691472        6.5905775561       12.5658134806
  C        10.2329367951        4.7537209755        5.5986827300
  H         9.8409730316        6.4627509366        6.6795803765
  C        10.6828310104        2.8871223036        4.5217893031
  H        13.8199668350        2.8536014801       11.4983550594
  H        13.0261217368        1.4898431304       11.2022608596
  C        12.2135092615        2.7024848171       12.8729041660
  C         7.8820357625        7.9512654332       12.8785193769
  C         7.2413924643        5.7242659553       13.7121074460
  C        10.5518930984        5.3952899351        4.2749596537
  C        10.8060701835        3.9857772033        3.6581177103
  S        10.9647633380        1.3482211079        3.8254700921
  H        12.2843279207        3.6796655604       13.3552433076
  H        11.1768842514        2.3890171188       12.8452323935
  C        12.9830013634        1.8251982650       13.8803513822
  N         8.3515228775        8.8706899686       11.9410239219
  C         7.5225418313        8.5066301802       14.1065556143
  C         6.8451157323        6.1841450741       14.9333331889
  H         7.1875355534        4.6790490165       13.5610310345
  C        11.8884077134        6.2394900357        4.4357068202
  C         9.3286274123        6.1010227678        3.6707767287
  C        11.2514384834        3.5145555189        2.4162525695
  C        11.3188849523        2.1561487326        2.3859586912
  H        13.5784090603        2.5126509828       14.4279902086
  H        13.6065406248        1.1172113349       13.3166338562
  C        12.2659908371        0.9364157937       14.9105082299
  S         8.1076430783       10.3987188562       12.5789649734
  N         7.7148041776        9.9251419711       14.1325976272
  C         7.0236998982        7.6816657270       15.1778391032
  H         6.4404430804        5.4800559927       15.6634738126
  H        11.7599451368        7.0927333259        5.1029033298
  H        12.2338819388        6.5907326829        3.4497543775
  C        13.1188715085        5.3847928766        4.9546433062
  H         8.9206612660        6.7443877998        4.4741098631
  H         9.7876160865        6.7387743010        2.8796016935
  C         8.1300998236        5.1955814675        3.1558092914
  H        11.5760926218        4.1802688107        1.7047313788
  C        11.7132018126        1.4055809594        1.0970511482
  H        11.3702547361        0.4871886949       14.4129795387
  H        12.9731635910        0.1087114084       15.2762844897
  C        11.8135066167        1.6689930883       16.1862804657
  C         6.7908244020        8.3119617902       16.4465472715
  H        12.8652720519        4.7861190091        5.8000073092
  H        13.3902882684        4.6288197527        4.1489777687
  C        14.4468478579        6.0795298377        5.2846308194
  H         7.6308802371        4.5593558998        3.9053632242
  H         8.5656953280        4.4662454893        2.6142498743
  C         7.1809289094        6.0360673505        2.2681893512
  C        11.7957981904        0.0123919168        0.9326949977
  C        11.9215622391        2.1645098526       -0.1317692436
  H        11.0968196798        0.9784254762       16.5893760962
  H        11.1070615147        2.4045811806       15.9521146279
  C        12.8621641868        2.0959175736       17.2042902041
  H         7.0489693945        9.3621178298       16.3287885001
  C         6.5745523674        7.7663964292       17.7020302399
  H        14.2902620081        6.8481886395        6.0313050270
  H        14.8724384779        6.6499688327        4.4705705947
  C        15.4783446322        5.1644794674        5.9104566466
  H         7.8083485135        6.8680019046        1.7992852499
  H         6.8503057342        5.3499257990        1.4860986693
  C         5.9044224372        6.5670476186        2.9386121256
  N        11.5535645428       -0.9551292201        1.9330041648
  C        12.2388900989       -0.5909040714       -0.2451955558
  C        12.1777822255        1.5357444170       -1.3682198083
  H        11.8158614233        3.2275322777       -0.1787269007
  H        12.4274251726        2.8351683999       18.0434874598
  H        13.6381947592        2.6108121134       16.8089517774
  H        13.1833102019        1.2656873261       17.7630546174
  S         6.2273097785        6.1591437058       18.1010934685
  C         6.3762589885        8.6859339088       18.8348034928
  H        15.0399953459        4.5332464958        6.7279480619
  H        15.9725779314        4.6323245194        5.1382605138
  C        16.5021776625        6.0316184432        6.6029697861
  H         6.2670509684        7.4892754281        3.4117727157
  H         5.6094978078        5.7938400876        3.6048879586
  C         4.9066482210        6.9040745819        1.8972445390
  S        11.6786777045       -2.4094621949        1.2940186514
  N        12.1762441535       -2.0037176132       -0.1731862541
  C        12.4133238123        0.1023807991       -1.4466080317
  H        12.1387339592        2.1496315959       -2.2115031545
  C         5.9671808261        6.6673213657       19.7578512158
  N         6.0500892746        8.0584962491       19.9688058070
  O         6.3634037887        9.9206231928       18.5925148369
  H        16.9309081173        6.8576460467        6.0161553440
  H        15.9325795010        6.5215287857        7.3899439942
  C        17.6072245279        5.2688221633        7.3223323715
  H         5.5116028805        7.4459924088        1.1165080766
  H         4.5546790265        5.9310026510        1.4687765036
  C         3.8151616341        7.8254731528        2.5150180103
  C        12.6886646417       -0.5595068509       -2.6904589726
  S         5.1711176981        5.6668997645       21.0051867136
  C         5.8208249887        8.7170222983       21.2760547505
  H        17.3682106124        5.3148115228        8.3824564467
  H        17.5454427490        4.2260484871        7.0379774486
  C        19.0224709465        5.7493313647        7.2561940160
  H         3.9638229602        7.8276251996        3.6433022450
  H         2.8063153608        7.3908005437        2.4190206144
  C         3.8077343419        9.3558410390        2.1862975058
  H        12.4151070304       -1.5954868625       -2.6710544201
  C        13.3006346764       -0.1759334774       -3.8305333842
  H         5.4030858074        7.9528588574       22.0094168591
  H         5.1005261114        9.5571121790       21.0497431012
  C         7.1984518609        9.1996878124       21.9123220524
  H        19.6024735992        5.2221298961        8.0643775612
  H        19.0744535493        6.8569574888        7.4306748233
  C        19.5491552298        5.3979907522        5.9018134750
  H         2.8023485495        9.7260562745        2.5905321904
  H         4.6522457232        9.8505857443        2.5525932095
  C         3.7397204897        9.6757045899        0.6561392832
  S        13.9283301358        1.4154411142       -4.1091929092
  C        13.3894087644       -1.1102185375       -4.9338759923
  H         7.2470446600        8.9590157120       22.9902327539
  H         7.3119361605       10.3165264438       21.9110761280
  H         8.1044073888        8.8281367312       21.4597631640
  H        20.1725326186        4.4759601513        6.1185113255
  H        18.6905418543        5.2414147249        5.2119692169
  H        20.1715161124        6.0631954350        5.4385428983
  H         3.6431794064       10.7973637916        0.6730077450
  H         4.5772353358        9.3527784585        0.0602166470
  H         2.8795799762        9.1975197708        0.2145779725
  C        14.3993381618        0.7968262867       -5.7057846986
  N        14.0988709422       -0.5097179896       -5.9259552533
  O        12.8960692586       -2.2875267597       -4.9637313670
  S        15.2193233337        1.7719619232       -6.9586055864
  C        14.3316845129       -1.2060717236       -7.1342767797
  H        14.7152365816       -2.2617699982       -6.9871934676
  H        15.1906745612       -0.7686402890       -7.5455152380
  C        13.2218016454       -1.0058336759       -8.0517528587
  H        12.2768891884       -0.7682425255       -7.5978739697
  H        12.9949305382       -1.9909850201       -8.4712944789
  H        13.6973339954       -0.2930047680       -8.7728279949
  H        -2.5837749907       15.3565449881       16.9840299804
  C        -3.0052912964       14.3740383244       17.0232235953
  H        -4.1025275482       14.5739533292       17.1501978897
  C        -2.2585601231       13.5567838002       18.0509303438
  C        -2.5848850396       13.6967016071       15.6811251432
  C        -2.4798372913       13.9702976564       19.4585818248
  H        -2.4742279110       12.5649559900       17.8954614484
  H        -1.2223878982       13.7127148457       17.8291964743
  H        -2.9937846933       14.2179298498       14.8041796688
  H        -1.4939605967       13.7229409073       15.5839770182
  H        -2.9569695225       12.6017527222       15.6722398877
  C        -2.3453783450       12.7689862568       20.3737345699
  H        -3.5524866454       14.3871714720       19.5440466593
  H        -1.7481954278       14.7194757561       19.7979218779
  C        -2.6154228083       13.3141648591       21.7973035265
  H        -2.9996946757       11.9664747161       20.0159934808
  H        -1.3456003920       12.3412713288       20.3241557855
  C        -1.6239728750       12.8101976112       22.8577807722
  H        -3.5841014234       13.0243418262       22.0235231270
  H        -2.6438552595       14.3935768078       21.8388347894
  C        -0.4732583183       13.7957430043       23.0140434862
  H        -2.1513094402       12.6251909774       23.8000235503
  H        -1.2549676247       11.9038935474       22.5220595395
  C         0.7635838834       13.0993421420       23.5574091818
  H        -0.2236516773       14.2161897519       22.0591119058
  H        -0.7807672269       14.5963483772       23.6689861628
  C         1.2025822357       11.8013337131       22.9123352086
  C         0.3439469549       12.3623942232       24.8481904238
  C         1.9425595641       14.1250912694       23.6920398400
  C         0.9518501885       10.6846623979       23.6786700737
  C         1.6607025634       11.4763441214       21.6209575349
  C         0.4050638288       10.9928410493       24.9435045278
  C        -0.1354863704       12.9183125165       25.9981695474
  H         1.9883094647       14.6402103082       22.7166980425
  H         1.8201470497       14.9949149380       24.3179611244
  C         3.3387646838       13.5170672906       23.9855340184
  S         1.4614421703        9.1972346655       22.9676013747
  C         1.8414049736       10.1072876379       21.4649654812
  H         1.7348250247       12.2520907003       20.9186309433
  C         0.0163497478       10.3466973891       26.0795189678
  H        -0.4847245580       13.9178341551       26.0622737383
  C        -0.3161777379       12.2362956490       27.1398465662
  H         3.5501487850       12.5989846601       23.3482437838
  H         3.3224609512       13.2209971921       24.9612782219
  C         4.5797817596       14.4541380300       24.0285550199
  C         2.3000629454        9.5438269120       20.2241589327
  C        -0.2723327797       10.9133036136       27.2824886234
  H        -0.0013082015        9.3018559743       25.9228546121
  C        -0.6494359934       12.5869612372       28.4590858936
  H         5.3772520322       14.0525322535       24.6388892954
  H         4.3271084559       15.3857795540       24.5319924403
  C         5.0845930416       14.7916120329       22.5724604776
  C         2.4009761098        8.1649941156       20.0151480912
  C         2.7477644387       10.4308698190       19.1191539334
  C        -0.5907968439       10.1993948367       28.5421774489
  C        -0.8715369042       11.5135949401       29.2313266271
  S        -0.8590870924       14.1024342863       29.2702045071
  H         5.6856633110       15.7458748095       22.7159936664
  H         4.2003680059       14.9752227309       21.9323375712
  C         5.9242488281       13.6812702791       21.9167343400
  N         2.0518531851        7.1857728042       20.9223753685
  C         2.7283483880        7.6235627731       18.7754619950
  C         3.2009684232        9.8264782540       17.8966672066
  H         2.7987426817       11.4869424008       19.2057835150
  C         0.4778013488        9.3274579472       29.1836398580
  C        -1.9067779583        9.3551211777       28.2829206230
  C        -1.1853334959       11.8948018951       30.5451509582
  C        -1.2637845759       13.2668319259       30.7044197154
  H         6.9525512103       13.8824915933       22.1949858924
  H         5.6527173908       12.7109961266       22.2689147366
  C         5.8106895782       13.7857368781       20.3867402447
  S         1.9749564382        5.7089712394       20.2451842359
  N         2.4694650019        6.2317120565       18.7461952070
  C         3.0078603988        8.3835231493       17.6191122046
  H         3.3575130041       10.4790532439       17.0487916494
  H         0.6439241731        8.4028771692       28.5811528120
  H         0.2127214757        8.7517502297       30.0958903085
  C         1.7809011275       10.1052246998       29.2135437029
  H        -1.8905478095        8.6268968978       27.4441418469
  H        -2.0957991597        8.6748976285       29.1241954420
  C        -3.1420262528       10.1196090539       28.0110929912
  H        -1.4387131879       11.1115093465       31.2349442669
  C        -1.5456027789       13.9650073281       31.9313129083
  H         5.4315681653       14.7733029650       20.1829742952
  H         4.9861342781       13.1066534215       20.1541280780
  C         7.1406974521       13.3579887512       19.7580557321
  C         3.3204777955        7.7164399296       16.4019733951
  H         1.9929733235       10.6376076594       28.2620895429
  H         1.7174746133       10.7848458930       30.0173653003
  C         2.9303242538        9.1416452476       29.5247375417
  H        -2.8626051639       10.8078236903       27.1731416955
  H        -3.4214221272       10.7907406444       28.8226645729
  C        -4.2493469693        9.2565408553       27.5533379454
  C        -1.7006784478       15.3783397581       32.0487434555
  C        -1.8764652908       13.1992698628       33.1584541753
  H         7.9775019970       13.7888212554       20.1890329268
  H         7.3032998240       12.2468971348       19.8793745384
  C         7.0394962851       13.6134328139       18.2446994074
  H         3.0209276003        6.7042873017       16.4182198887
  C         3.6867791327        8.1747228892       15.1748666441
  H         3.2295722213        8.7378118785       28.5564678047
  H         2.6418867433        8.2076240407       29.9527606071
  C         4.1208147053        9.6931690795       30.1707890496
  H        -3.9652979846        8.6359554475       26.7152838953
  H        -4.7708787310        8.7345892681       28.2849155779
  C        -5.4363088234       10.1895954455       27.0867538001
  N        -1.6840178604       16.3128721079       31.0315028295
  C        -2.0640956136       15.9665685991       33.2258424959
  C        -2.2410446943       13.8041191039       34.3856965220
  H        -1.9125608807       12.1616606435       33.0607257460
  H         6.7558487585       14.6515394778       18.1392742902
  H         8.0020756527       13.4131240752       17.7716703348
  H         6.2469321468       12.9487975847       17.7748017292
  S         4.1652761280        9.7685674667       14.6196482313
  C         3.7981895512        7.1501790312       14.1615313273
  H         4.5776272404       10.6209940786       29.7689387753
  H         3.9007452004       10.0274773880       31.1949340920
  C         5.2444640544        8.6001373871       30.3684020503
  H        -4.8776992558       11.0222253041       26.5769432532
  H        -5.9744479369       10.5436250910       27.9814662670
  C        -6.4104650742        9.3362505866       26.1832171377
  S        -1.7806351162       17.8014732302       31.6176406938
  N        -2.3009801733       17.3155677677       33.0992109450
  C        -2.3450296481       15.2873333533       34.4358956170
  H        -2.3884470299       13.1659867535       35.2004889958
  C         4.3710682404        9.0537323621       13.0841122840
  N         4.2376148724        7.6797476466       12.9657683626
  O         3.4613156882        6.0022411419       14.3776909982
  H         6.2565184190        9.0562984555       30.1797179173
  H         5.0890087652        7.9679073505       29.5353815028
  C         5.0862079043        8.0183631236       31.7644222217
  H        -5.8720700999        8.7326734258       25.4294944257
  H        -6.9201533046        8.5651317824       26.8418866144
  C        -7.3460313108       10.3896470443       25.5842390441
  C        -2.7179121301       16.1298522319       35.5640018586
  S         4.8983607731        9.9777209391       11.5777120192
  C         4.2496496917        6.8789973316       11.6814495937
  H         5.3689148613        8.8212067133       32.4827083887
  H         4.0328767647        7.9708523002       31.9966263864
  C         5.8479751582        6.6760617982       32.1241007126
  H        -6.7364214529       11.0343482259       24.9149238151
  H        -7.7460588038       11.1066513930       26.3192783194
  C        -8.4965398157        9.7011847022       24.8076801554
  H        -2.3861488778       17.1792743097       35.4707397428
  C        -3.2745983671       15.8676759666       36.8077895150
  H         4.9818680889        7.2086321713       10.9734295040
  H         4.6468030697        5.9086688451       11.9953556320
  C         2.8121084750        6.7475018585       11.1269676444
  H         5.1254643408        5.8535245145       32.2525770000
  H         6.2814031551        6.8162531883       33.1259583219
  C         6.8753632004        6.2532074761       31.0814376580
  H        -8.8612773248       10.3049011383       23.9944182584
  H        -8.1228237988        8.7655835745       24.2987356022
  C        -9.7013583638        9.3810584849       25.7599615124
  S        -3.8643968064       14.3745127845       37.4055589311
  C        -3.2512796883       16.9139316274       37.8886995020
  H         2.7849698499        6.3238973217       10.1436741060
  H         2.2894377074        6.0698245174       11.8020159979
  H         2.3177318393        7.7027704913       11.0475825605
  H         7.3452612612        7.1816265781       30.6547140681
  H         6.3575161492        5.5102304386       30.3773147708
  H         7.7066150138        5.7255423381       31.5541829290
  H       -10.2369001466       10.3303948259       25.9857325911
  H        -9.3894254772        8.9492781502       26.7782693806
  H       -10.5217601401        8.8116081137       25.3185701402
  C        -4.0861610860       15.1316312026       38.9274029719
  N        -3.8229643746       16.4900324932       38.9665986876
  O        -2.8006101160       18.0178818389       37.7306166890
  S        -4.7085325965       14.3403136735       40.3158220174
  C        -3.8312578657       17.3214429277       40.2508757718
  H        -3.8642221195       18.3880921685       39.9977506896
  H        -4.7235332213       17.2665272289       40.8324967699
  C        -2.6267648640       17.1281482819       41.0858852156
  H        -2.4593743990       17.8568831906       41.8840750219
  H        -2.6202906658       16.1196459053       41.5515327522
  H        -1.8242990672       17.2117483910       40.4118308731
