352
i=
  H         2.5110679953        1.4776899227       13.3992728182
  C         3.3261793616        1.4756982373       12.6770423508
  H         3.6071571824        0.4830567556       12.4394512347
  C         2.8505661027        2.3744757680       11.5729629075
  C         4.5326612925        2.0323354064       13.4281868328
  C         3.8063005045        2.6660972796       10.4313231186
  H         2.3986539560        3.2850582136       11.9485711521
  H         1.9769628583        2.0089993637       11.1498666383
  H         4.5251308393        1.7508900004       14.4918488573
  H         4.5274381592        3.1127100413       13.3821826829
  H         5.3890193268        1.5466071340       13.0300809117
  C         4.6314471866        1.5246157577        9.8211389319
  H         3.2494398050        3.1870846812        9.6073624907
  H         4.5078637059        3.3842688486       10.7050563641
  C         5.3243726246        1.7211806596        8.5146633213
  H         3.8636412595        0.7175230277        9.7119313314
  H         5.2831296785        1.1749898432       10.6092588422
  C         6.6099660983        2.5808480049        8.7245022808
  H         4.7090710906        2.1055244753        7.6941622384
  H         5.7445038235        0.7322988215        8.2355421380
  C         7.7564188584        1.7957523027        9.3614776318
  H         6.9732272387        2.9205535763        7.7038951083
  H         6.2906819381        3.3995032422        9.3120740408
  C         8.9580370168        2.6941831658        9.5751032897
  H         7.8879674752        0.8935378515        8.7975206732
  H         7.5404866923        1.3894278189       10.3190321244
  C         8.6146053332        4.0407847489       10.2648072580
  C         9.4067362972        3.4188676713        8.3924614348
  C        10.1383296948        1.9486532335       10.2763449834
  C         8.9232898445        5.1469145894        9.5082861295
  C         8.1338835270        4.4473451460       11.5435296151
  C         9.3485714243        4.7545158825        8.2700083913
  C         9.8183805201        2.7886977717        7.2239957274
  H         9.8352098536        1.2732860939       11.0876144107
  H        10.5233631914        1.3494109153        9.4649828258
  C        11.1913263581        2.8326070843       10.7758204241
  S         8.4310617848        6.6799839039       10.3061872012
  C         8.0073345780        5.8057469852       11.6506748940
  H         7.9795813024        3.7256195261       12.3802911338
  C         9.6494732161        5.3506323182        7.0760180009
  H         9.7536611214        1.6776793109        7.1282163951
  C        10.1115016250        3.3868341615        6.0254447128
  H        10.8202426319        3.4318037015       11.6202678133
  H        11.5111543342        3.6138378313       10.0980619857
  C        12.4868730898        2.1032499598       11.2536412156
  C         7.5236788085        6.4572513055       12.8930021327
  C        10.1345429080        4.6883394711        5.9122043852
  H         9.6449848813        6.4433342766        6.9941624092
  C        10.5607116273        2.9547091052        4.7842913345
  H        13.3266244898        2.7301350486       11.0769753016
  H        12.6186581666        1.2433412428       10.6520764591
  C        12.3334579214        1.6671129419       12.7498723673
  C         7.5466369853        7.8462792193       13.1995691982
  C         7.0674663437        5.5682581506       14.0520778361
  C        10.6555674787        5.4216664611        4.6416195053
  C        10.8348859814        4.0258616888        3.9554108108
  S        10.8112266802        1.3947854977        4.0541966295
  H        11.6269184315        2.2417548394       13.2094328280
  H        11.8915866890        0.7268881512       12.6251515816
  C        13.5451191602        1.6760369207       13.6303763660
  N         7.7720247089        8.9060948610       12.2861770984
  C         7.2541941253        8.3220680032       14.4408840259
  C         6.7150021312        6.0800699974       15.2874135694
  H         7.1344518308        4.4969762478       13.9798003544
  C        11.9916376303        6.1283431749        4.8818128005
  C         9.5162497087        6.1926486678        3.8740148733
  C        11.1714434848        3.5355486193        2.6600759033
  C        11.1510216598        2.1654508219        2.5253854054
  H        13.9493222142        2.6887339442       13.8151478637
  H        14.4263614758        1.0976856660       13.2280891024
  C        13.2136026826        0.9041340414       14.9715559933
  S         7.7632089765       10.3196485137       13.1329558549
  N         7.5375677684        9.6515440917       14.5761932440
  C         6.9159304259        7.5151649992       15.5468446052
  H         6.3904173349        5.3745613387       16.0650606838
  H        11.7513779966        7.0558862845        5.4845578795
  H        12.3337638417        6.5022361899        3.9559491081
  C        12.9907154813        5.2405703678        5.5783232507
  H         9.0409463828        6.8577882876        4.6268820350
  H         9.9508968570        6.8344403833        3.2186932800
  C         8.3818880371        5.4002628093        3.1889714071
  H        11.4122223775        4.2820565721        1.9515198331
  C        11.4568194832        1.3636981927        1.3038752881
  H        12.6120517071        0.0666629756       14.7299395725
  H        14.1507862851        0.4738779563       15.3175554601
  C        12.6705055993        1.8971850337       16.0794497082
  C         6.7004769026        8.1854608554       16.7796075907
  H        12.5263850132        5.0556558241        6.5610024265
  H        13.0393346872        4.2288710052        5.1999065327
  C        14.3441384759        5.8170144733        5.7125420625
  H         8.3078271427        4.3720118930        3.6385118928
  H         8.6086958143        5.2452451141        2.0951315841
  C         7.1050545819        6.2030996471        3.3166004401
  C        11.5029432211       -0.0211988146        1.1659470915
  C        11.6449355208        2.1133993344        0.0713608053
  H        11.9034194605        2.5864740980       15.6101563757
  H        13.3969347763        2.7180502448       16.3989799096
  C        12.2381971396        1.2222300935       17.3444126269
  H         6.6367105420        9.2961452708       16.7859992953
  C         6.3647130582        7.7084770000       18.0236426521
  H        14.1517140350        6.8407040072        5.9721440408
  H        14.8186159980        5.7988637632        4.7362761860
  C        15.2842666398        5.1277635478        6.6779478835
  H         7.0646739478        6.6259997431        4.2886844602
  H         7.1832737706        7.0017079992        2.6404269640
  C         5.8788156775        5.2555850518        3.0692051879
  N        11.2885708367       -0.9367865243        2.2090726491
  C        11.8712779257       -0.6702359084       -0.0136157058
  C        11.9726279412        1.3947528744       -1.1155567826
  H        11.6243100207        3.1461589823        0.0421049872
  H        11.2782866061        0.8727363618       17.3375678367
  H        12.3479922991        1.9343607433       18.1305432777
  H        12.9678846451        0.4426294442       17.7137726996
  S         6.0481560132        6.0272245154       18.4970131651
  C         6.3478668905        8.6291310039       19.1676947611
  H        15.2003835649        5.5122824713        7.6752422993
  H        14.8917824478        4.0622871091        6.8578141832
  C        16.7763311930        5.2407946864        6.2223848614
  H         5.4867215852        4.8488501416        3.9958117931
  H         6.1298519398        4.4294591478        2.3419487644
  C         4.7209542551        6.0596121197        2.4483819527
  S        11.3739539643       -2.4190410149        1.5792585149
  N        11.9535029081       -2.0546839060        0.1348904801
  C        12.1683277430       -0.0188323039       -1.1680242297
  H        12.0934987205        2.0619837937       -1.9164818968
  C         5.9303970211        6.6165642487       20.0915081334
  N         6.0538806381        7.9862851239       20.2647057520
  O         6.7921210364        9.7574958094       19.0724227297
  H        16.8248995764        5.0278279927        5.1425235067
  H        17.1108698572        6.2625164915        6.4527613310
  C        17.7457322317        4.4066056519        7.1056609783
  H         5.0862832858        6.3918191119        1.5010452901
  H         3.9233513853        5.4128175361        2.2090794156
  C         4.1843849479        7.1552113785        3.4287786792
  C        12.5383873999       -0.7866745072       -2.2544307708
  S         5.4588058886        5.6507969048       21.4787308848
  C         6.0843821969        8.6726628503       21.5563233907
  H        17.2434349276        4.1430420527        7.9976408286
  H        18.0386899798        3.3779085783        6.7334172775
  C        18.9691398301        5.3088768039        7.4968331866
  H         4.4703115187        6.7983501187        4.4257078269
  H         3.0924022900        7.0667182299        3.3367269861
  C         4.5606099254        8.6348986345        3.0629220481
  H        12.5932552128       -1.8365727981       -2.1158885685
  C        13.0306992269       -0.3811469775       -3.4351818171
  H         5.4277952082        8.1491541997       22.2338385391
  H         5.7950720198        9.7505606696       21.4528036577
  C         7.5261382697        8.7181663195       22.0586867770
  H        19.6702098004        4.8419532085        8.1881124496
  H        18.6675999259        6.1964741533        8.0578257592
  C        19.7605237605        5.6664700220        6.2806059576
  H         3.9930202254        9.4392637299        3.4877108879
  H         5.6125741449        8.8119441176        3.2940045863
  C         4.4420606355        8.9445063752        1.5159453566
  S        13.3735607847        1.2319268830       -3.9154765010
  C        13.3210111053       -1.4354529727       -4.4300432263
  H         7.8461314677        7.7044781068       22.3417392630
  H         7.5458839317        9.3934857362       22.8776234401
  H         8.2157935149        9.1589606713       21.2862441848
  H        20.0743164144        4.7594171048        5.7085418783
  H        19.1123072847        6.1999198118        5.5679558694
  H        20.5788210842        6.2955938980        6.5803956073
  H         4.2988865453       10.0314725537        1.4438591283
  H         5.3136499412        8.6825451079        0.9618051778
  H         3.5737050066        8.3981909964        1.0388745155
  C        13.9586751146        0.5024000489       -5.4326402754
  N        13.8241396774       -0.8820082790       -5.5145407755
  O        12.9279351960       -2.5697413784       -4.3248853718
  S        14.8390395613        1.3207734701       -6.7372481909
  C        13.9124851851       -1.6432987898       -6.7455605579
  H        14.4482346059       -2.5313114938       -6.5165609993
  H        14.4265426568       -1.1414113463       -7.5377162453
  C        12.4861860028       -1.7533573080       -7.3394264844
  H        11.6093363678       -2.0547580335       -6.7017193530
  H        12.5169586716       -2.5430043321       -8.1224400031
  H        12.2895989477       -0.8606242576       -7.9750033375
  H        -3.6091644332       12.6920357631       16.8080064720
  C        -2.6913511018       13.0692325356       17.2050894786
  H        -2.0795286921       12.2405793079       17.4873205403
  C        -2.8697789367       14.1369015256       18.3325305934
  C        -2.1041780553       13.5942195523       15.9274949681
  C        -3.3082661623       13.5846894876       19.6585605942
  H        -1.9696760380       14.7504926970       18.3680285881
  H        -3.6359734775       14.7707398903       17.9786505661
  H        -2.0909746232       12.7798222575       15.1465467640
  H        -2.7285120613       14.4293906831       15.5466224050
  H        -1.0994393850       13.9660475869       16.0713562979
  C        -2.1180927351       13.2316586143       20.5345715841
  H        -3.9932256438       12.7117541839       19.6007749772
  H        -3.8927739702       14.2768574336       20.2148087973
  C        -2.4628644311       13.1104667074       22.0036746018
  H        -1.6157552579       12.4250906648       20.0963855377
  H        -1.3545737706       14.0319340253       20.3637372904
  C        -1.3177742155       12.4840681771       22.7824017044
  H        -3.4112693397       12.5287576309       22.1132616046
  H        -2.6251338842       14.0922082759       22.4359133934
  C        -0.1703185231       13.3824149323       22.9739472308
  H        -1.7139279700       12.2628784456       23.7928200372
  H        -0.9791854848       11.5434543750       22.3331447235
  C         1.0276360081       12.5783004210       23.6992184704
  H         0.2680831035       13.7010871864       22.0488178815
  H        -0.4553376765       14.2380160121       23.5430389303
  C         1.4686692522       11.3155606327       22.9369585753
  C         0.5825565890       11.8811200406       24.9287593383
  C         2.1899712703       13.5562596822       23.8214915532
  C         1.1464318385       10.2144314835       23.7543823493
  C         2.0580877350       11.0374155369       21.7381055516
  C         0.7000352787       10.5400283854       25.0064491413
  C         0.1604597788       12.4471118545       26.1617360113
  H         2.1286139187       14.3880453373       23.1385642711
  H         1.9819120046       14.0551908117       24.7317318738
  C         3.6442926241       12.8988555938       23.9623863574
  S         1.5737535090        8.7317965679       22.9928157258
  C         2.0213153687        9.6844747909       21.5232718004
  H         2.3286198516       11.7798640939       21.0129612851
  C         0.3349936077        9.8723965821       26.1661613553
  H         0.0734462636       13.5141529315       26.1928539869
  C        -0.1427979360       11.7765380639       27.2635224095
  H         3.8504473935       12.3829283650       23.0359147489
  H         3.6539302437       12.1399454307       24.7718657547
  C         4.7980767698       13.9262621855       24.3177369025
  C         2.3762469047        8.8967454269       20.3037435280
  C        -0.1358104633       10.4340171188       27.3742578774
  H         0.3618725614        8.8474806607       26.2555184428
  C        -0.4480792972       12.1768597188       28.5626797759
  H         5.6686060270       13.4545598688       24.8526992077
  H         4.3930272367       14.6840141503       25.0644523683
  C         5.3113820934       14.6338424592       23.0907315738
  C         2.2971733973        7.5312885515       19.9835851648
  C         2.7369681592        9.7427243637       19.1147443534
  C        -0.5041531016        9.7717324028       28.6866866375
  C        -0.7583192513       11.1281017079       29.3757364871
  S        -0.6554739855       13.7248326243       29.2421225313
  H         6.1041757956       15.3311885424       23.4463706750
  H         4.4923659904       15.1996948880       22.5947042203
  C         6.0224151214       13.7474362684       22.0379722436
  N         1.7590332901        6.5836706111       20.8224612969
  C         2.5954176890        6.9845470240       18.7453155208
  C         3.0313060863        9.2181995649       17.8839841869
  H         2.8080131178       10.7460043506       19.0664070577
  C         0.7860378241        9.0609199750       29.1234220610
  C        -1.7696621479        8.8736927191       28.3605539740
  C        -1.1821402689       11.5241119299       30.6563291663
  C        -1.1155184909       12.9517269025       30.7661838319
  H         7.1237810934       13.9165592598       21.8161449815
  H         6.0096646208       12.7003615098       22.4179595935
  C         5.3223895380       13.5795086037       20.7159639942
  S         1.8838877528        5.0923992756       20.1530529294
  N         2.4163241954        5.5873633226       18.7149261062
  C         2.9527620581        7.7277876380       17.6085883873
  H         3.4404850050        9.8348837264       17.1169158575
  H         1.0230554071        8.4014703795       28.2795248950
  H         0.6467624089        8.4086899050       30.0201474021
  C         1.9518476299       10.0114446948       29.3452921334
  H        -1.4605645641        8.2087802762       27.5607573133
  H        -1.9822158430        8.2387151669       29.1998827369
  C        -2.9666071613        9.7597041681       28.0366438635
  H        -1.3242082909       10.7943467470       31.4067043134
  C        -1.4782842100       13.7762929142       32.0446891833
  H         4.8457548302       14.4798758429       20.4162861920
  H         4.6358485087       12.7599869085       20.8244878987
  C         6.4058629158       13.2320123073       19.7489813033
  C         3.2596627272        7.0764176938       16.3872290759
  H         2.1014753137       10.6056155091       28.4540225166
  H         1.8372198102       10.7785524055       30.1431531781
  C         3.2386193325        9.3146329404       29.7104577029
  H        -2.6807459008       10.3627030075       27.2033709976
  H        -3.3656640307       10.3251247499       28.9006640460
  C        -4.2059322511        8.9928127136       27.6286928816
  C        -1.4286028838       15.1950708280       32.0456836138
  C        -1.7857015202       13.0387873572       33.3405501509
  H         7.1591054118       14.0344498806       19.7714907301
  H         6.9968545220       12.4304525103       20.0844272869
  C         5.9781125537       12.7598390182       18.3326446786
  H         2.9997805705        6.0207204681       16.4349714666
  C         3.5809994223        7.4840577777       15.0882855377
  H         3.6874930148        8.8222289488       28.8363373730
  H         2.9945698870        8.4629611549       30.3789964955
  C         4.1720604012       10.1672957862       30.5357418203
  H        -3.8538963439        8.1278766851       27.1140152239
  H        -4.7138182643        8.6432186579       28.5652431264
  C        -5.1272133050        9.8508465019       26.8674996846
  N        -1.0665979512       16.0415588024       31.0478929589
  C        -1.6400120794       15.8939144740       33.2121759333
  C        -1.9880753563       13.7882924076       34.4594346950
  H        -1.6270700017       11.9511824473       33.3933857200
  H         5.4586567699       13.5029358178       17.6802612622
  H         6.8231992402       12.3623705246       17.7456878737
  H         5.3863648524       11.9275007602       18.4401876303
  S         4.0792980947        9.0624435782       14.6769472681
  C         3.5778590568        6.4507012929       14.0145792249
  H         4.0812773967       11.2003041000       30.2616554118
  H         3.9278598123       10.2375622232       31.6145676516
  C         5.5858715954        9.7113754268       30.1938150024
  H        -4.5629788000        9.9950676458       25.9787715012
  H        -5.2846284007       10.8583717701       27.2155650767
  C        -6.4902550703        9.1953354905       26.5566472273
  S        -1.3738055288       17.6126237122       31.5152326924
  N        -1.4986615202       17.3038503333       33.1046989514
  C        -2.0731057723       15.3141465172       34.4015062494
  H        -2.0702020422       13.2957344280       35.4144185453
  C         4.2221223639        8.3577318655       13.0770369871
  N         4.0227070842        7.0499327754       12.9268746368
  O         3.2955423926        5.2921755680       14.1981889964
  H         6.2721006132       10.5639970024       30.5265107572
  H         5.6614057693        9.7055637218       29.1220980097
  C         5.9319564951        8.3670723108       30.8304192649
  H        -6.2657067975        8.3688480787       25.8808026142
  H        -7.0646906178        8.7362333673       27.3846386362
  C        -7.2936455659       10.3335639733       25.9806742604
  C        -2.3678293127       16.1717454578       35.5424796959
  S         4.7290314126        9.2102392428       11.5786379087
  C         4.1187650429        6.2890592750       11.6749978008
  H         6.5296490139        8.6935649181       31.6303918068
  H         5.0364104307        7.9128152657       31.3008795392
  C         6.7890570142        7.3754973357       30.0232367846
  H        -6.7812790463       10.8800680046       25.2154035896
  H        -7.4540420160       11.1567753979       26.7362441577
  C        -8.5800382256        9.8657415355       25.3524125047
  H        -2.1298571404       17.1887424504       35.3694464146
  C        -2.9269684137       15.9756194110       36.7524889904
  H         4.9326152331        6.5840169060       10.9879438472
  H         4.2477497161        5.2379435500       11.8579909955
  C         2.8944232884        6.4547078800       10.8534362158
  H         7.7838643186        7.8380342601       30.0440001026
  H         6.4439271164        7.3207852974       29.0056038146
  C         7.0589693223        6.0079830279       30.5479254400
  H        -8.7344003593       10.4348221764       24.4614953133
  H        -8.3361471234        8.8242812671       24.9325730863
  C        -9.7879985679        9.7324144890       26.2805836385
  S        -3.8107890715       14.6080991548       37.3566081373
  C        -2.8721676559       17.1126004756       37.7007343721
  H         1.9772686746        6.5660579563       11.4630149144
  H         3.0459608234        7.2624652245       10.1657336350
  H         2.7449357403        5.5459824976       10.2383938415
  H         6.0996349966        5.4623309819       30.7311848403
  H         7.7659596737        5.9233981997       31.3924536073
  H         7.5480844533        5.4525986415       29.7978155752
  H       -10.1798111276       10.7620446041       26.4130616344
  H        -9.4277697690        9.6402439777       27.3327510081
  H       -10.5653399137        8.9305436895       26.0554695730
  C        -4.0000437029       15.5355054691       38.8671746361
  N        -3.5730357150       16.8310421034       38.8368137627
  O        -2.3061676648       18.2078483264       37.5069776718
  S        -5.2270863878       15.1646664640       40.0865662810
  C        -3.4236421780       17.6509260938       40.0069949471
  H        -3.4049911516       18.7008382058       39.7313210322
  H        -4.2907466360       17.5227938666       40.6606606949
  C        -2.1524826546       17.1757926707       40.7227664367
  H        -2.0644903806       17.6875657492       41.7135376097
  H        -2.3194218761       16.1994956753       41.0434906904
  H        -1.1951635450       17.2735916162       40.1708540967
