352
i=
  H         4.8284683530        1.6028214158       12.8504471439
  C         4.0751399965        2.3816117853       13.0160870958
  H         4.4700650205        3.4064841081       13.0089129151
  C         3.1645731736        2.2782832722       11.7666012889
  C         3.2711305346        2.1322677728       14.3231080427
  C         3.8344934925        2.6459298886       10.4456833612
  H         2.4842018086        3.0920346767       11.8736963914
  H         2.6632396343        1.2819862635       11.6944041745
  H         2.4814786753        1.4381408948       14.1777407402
  H         2.9066243978        3.0835655751       14.8357620006
  H         3.8877286664        1.5230441695       14.9298016754
  C         4.4803696620        1.3878075100        9.8629587938
  H         3.0115884352        2.8646214021        9.8174393239
  H         4.5598783138        3.4573491472       10.5154142889
  C         5.1967169660        1.4512689337        8.5131485457
  H         3.5901658572        0.7573281822        9.8111452565
  H         5.1967941409        0.9529304885       10.5449960923
  C         6.4847686537        2.2865944095        8.6189006163
  H         4.4966938118        1.8929236398        7.7544991152
  H         5.4220905358        0.4596054812        8.1718695040
  C         7.7423492585        1.5971228734        9.1210830766
  H         6.8576225578        2.7007623141        7.6660329475
  H         6.2223219388        3.1028507951        9.2597830356
  C         8.9320929950        2.5582625815        9.4066766176
  H         8.0289566797        0.7763308080        8.4128733446
  H         7.4312363338        1.0988062310       10.0342414870
  C         8.6434765687        3.9267134565        9.9856903934
  C         9.5074527899        3.2698449329        8.1409880879
  C        10.0052629063        1.8763270226       10.2494722921
  C         8.9413547304        5.0410646631        9.2017450479
  C         7.9173262542        4.3123247350       11.1294617464
  C         9.5948728220        4.6155153200        8.0417203668
  C         9.8913361249        2.6372494319        6.9041008722
  H         9.5026088370        1.2370109810       10.9601650737
  H        10.5247148249        1.1962561020        9.5440879076
  C        11.1783930125        2.8093024566       10.8728174991
  S         8.3755654330        6.5266920107        9.8486956792
  C         7.7625749343        5.6622471777       11.2292999679
  H         7.6792443954        3.6302101787       11.9322624878
  C        10.0202100978        5.2409858508        6.8851209096
  H         9.7548848445        1.5685345032        6.9123103668
  C        10.2402943054        3.2242333223        5.7269175922
  H        10.7269496000        3.4731170866       11.5812777065
  H        11.6622896112        3.4557129212       10.1359841883
  C        12.1368875333        2.0786047226       11.8292047152
  C         7.3650457437        6.3369328398       12.4857078195
  C        10.3273133825        4.6115865604        5.6609902581
  H        10.0193264301        6.2880007077        6.9034348452
  C        10.5810917617        2.8415389565        4.4426396258
  H        12.8926265182        2.7935684311       11.9924663025
  H        12.6200193246        1.3193065223       11.3000596502
  C        11.3661183485        1.6036810971       13.0938698688
  C         7.3477642600        7.7087846341       12.7549663871
  C         6.9421114403        5.4755571653       13.6296148054
  C        10.7018707362        5.2983950874        4.4055150136
  C        10.8941296909        3.9130210576        3.6541464455
  S        10.8660902568        1.3031248308        3.7036645621
  H        10.3024682995        1.8956203943       12.8388174938
  H        11.4183264416        0.5247327278       13.0573483990
  C        11.7539174461        2.1256778298       14.4566696418
  N         7.7084520385        8.7008517690       11.8490633079
  C         7.1827493648        8.3022531835       14.0295437071
  C         6.6254682131        6.0317503551       14.8692014428
  H         6.8900007143        4.3863291900       13.5397351861
  C        12.0194436918        6.1311126707        4.5618063442
  C         9.5374832918        6.0976026634        3.7784886052
  C        11.1022301886        3.5527367639        2.3752255414
  C        11.1391896635        2.1697586266        2.2689439062
  H        10.9512372759        2.0757600649       15.1120138527
  H        12.0315762431        3.1794498344       14.4790945329
  C        13.0071913479        1.4702752268       15.1371885796
  S         7.3013564418       10.2001549018       12.4436606320
  N         6.9449777064        9.6442954147       14.0009018939
  C         6.8361886451        7.5282924219       15.1730288256
  H         6.2807721801        5.3586054290       15.6472405510
  H        11.9803154399        6.7252498259        5.4721271498
  H        12.0782964340        6.9336263654        3.8188295117
  C        13.3651273292        5.3594822648        4.6772136665
  H         9.2947114645        6.9330892086        4.4168769023
  H         9.8013672677        6.5341930971        2.8867715131
  C         8.2932781382        5.2281242566        3.5674418014
  H        11.2944017086        4.2440255224        1.5495984817
  C        11.5561683558        1.4043963861        1.0794625955
  H        12.9918631839        0.3628513277       15.0393504604
  H        13.8246414996        1.6551082253       14.5065060264
  C        13.3364876242        2.0944195480       16.4827534168
  C         6.7029080037        8.1983528862       16.4328260611
  H        13.1187895766        4.9315763387        5.6413802572
  H        13.3166364498        4.4956640221        3.9814625188
  C        14.5094439935        6.4288185178        4.7411710325
  H         8.0953997422        4.7997121896        4.4881771986
  H         8.4546545145        4.3754178501        2.9178572906
  C         7.0516938836        6.1500754457        3.0520622459
  C        11.5541192115        0.0358080903        0.8789289948
  C        11.8540935702        2.1290390152       -0.1126891157
  H        14.0208156134        2.8708144798       16.4895113284
  H        13.9100091786        1.3325013315       17.0347817109
  C        12.2120784355        2.3688891661       17.4494336154
  H         7.0563070310        9.2088323309       16.2647581275
  C         6.5067814102        7.8437047126       17.7104528134
  H        14.1532946474        7.1467548714        5.5275241430
  H        14.6083970944        6.8449319911        3.7707223988
  C        15.7770144190        5.8757255726        5.2922672520
  H         6.9261140140        6.9957013902        3.7384816946
  H         7.3690163675        6.7224662421        2.1217384623
  C         5.6744387178        5.5922531978        2.8312511673
  N        11.1194804290       -0.8863702828        1.8082807403
  C        11.9050929878       -0.5860937849       -0.3575569817
  C        12.1714319097        1.5752396126       -1.3420602356
  H        11.9185919234        3.2495108226       -0.1344890200
  H        12.4872652853        2.2533874580       18.4650467386
  H        11.2996825686        1.7686622692       17.1668961063
  H        12.0997406892        3.4221121025       17.2844582886
  S         6.2385103536        6.2038303062       18.1354190663
  C         6.4814191454        8.9200983298       18.7315362361
  H        15.9108957338        4.8145860194        5.0302277484
  H        16.4423951616        6.4768037977        4.6976207929
  C        16.0644320618        6.0210406582        6.8411116779
  H         5.3867316207        5.2730397844        3.8162259818
  H         5.8763300595        4.7656421876        2.2261141328
  C         4.6551047904        6.5956359047        2.1402431525
  S        11.2894306759       -2.3806029046        1.1607411108
  N        11.8457252261       -1.9609985009       -0.2621452248
  C        12.3020565803        0.1224260448       -1.4944892987
  H        12.1475640892        2.1820808721       -2.2286512760
  C         5.9905992886        6.9441064826       19.7608437247
  N         6.1787495640        8.2916483162       19.8601082299
  O         6.6666412560       10.1044567853       18.4700967836
  H        16.2081554052        6.9494668514        7.3413630226
  H        15.1226784209        5.6954636824        7.2552689960
  C        17.2026149041        5.1403421844        7.3660916261
  H         5.1596615044        6.8563164828        1.2185897418
  H         3.7236201114        6.1158993332        1.9624350680
  C         4.4679995411        7.8364767062        2.9980322620
  C        12.6923830265       -0.6047876458       -2.6231911198
  S         5.5718848269        6.0917747300       21.2463690016
  C         6.1048341090        9.0047784371       21.1390317410
  H        16.9236818671        4.8032358209        8.3389797464
  H        17.3519989636        4.3273522509        6.7014248913
  C        18.4390330977        5.9971839860        7.5246956988
  H         5.3900083780        8.2840506109        3.3886938398
  H         3.9305595522        7.5573930315        3.8465691766
  C         3.6498228662        8.8818478774        2.2725851762
  H        12.6027937517       -1.7633327979       -2.6059036159
  C        13.2938619470       -0.2065707831       -3.8002625350
  H         5.2446302832        8.9078126074       21.7073975314
  H         6.1890804036       10.0444659959       20.7881275269
  C         7.3499104850        8.7030813460       22.0574349052
  H        19.1766697912        5.5591888104        8.1482059758
  H        18.2085303095        7.0038706796        8.0221678687
  C        19.3083936403        6.2359380016        6.2692555820
  H         2.6967832347        8.4881825406        1.8076956973
  H         3.4848522068        9.5976476636        3.0724906906
  C         4.4108982175        9.6414864603        1.1420489664
  S        13.6586289732        1.4027855037       -4.1630370591
  C        13.2881836189       -1.1317981272       -4.9665961274
  H         7.5966555342        9.5449104369       22.6120530919
  H         8.2515491296        8.4731301556       21.4885114248
  H         7.1665562079        8.0359028954       22.8974466736
  H        20.3636160508        6.0931689891        6.4032390900
  H        19.0460723501        5.6758056855        5.3378225316
  H        19.0290113976        7.2313871432        5.8480064847
  H         3.6964286340       10.0666740615        0.4416943561
  H         4.8385854569       10.5761087890        1.4583818726
  H         5.1589812583        9.0047682800        0.7285375173
  C        14.0312210798        0.8193903849       -5.8056466342
  N        13.7944147854       -0.5259465657       -6.0507241795
  O        13.0314374217       -2.3588152183       -4.8293578809
  S        14.8218038923        1.8085418106       -6.9149426589
  C        14.0081349710       -1.1546206979       -7.3421415665
  H        14.0252243975       -2.2482192004       -7.3246204880
  H        15.0008997005       -0.9462135045       -7.6189063590
  C        13.0232775713       -0.6104050323       -8.4246394517
  H        13.3080478758        0.0650274421       -9.2302901304
  H        12.1476906540       -0.2612861385       -7.9345690765
  H        12.7547864731       -1.5094597439       -8.8997747385
  H        -3.1707029551       15.0444219705       16.9658032844
  C        -3.0146683503       13.9738245567       16.7039004086
  H        -3.9655818310       13.3913909583       16.6792358453
  C        -2.2666266267       13.2512131712       17.7611327545
  C        -2.3205640630       13.7238373812       15.4344019797
  C        -2.9283427083       13.2351994036       19.1424472901
  H        -2.1768966575       12.2504401778       17.3349994584
  H        -1.1851263465       13.6666692378       17.7569750715
  H        -2.8028342000       14.2802964072       14.5761403213
  H        -1.3330642125       14.1701510654       15.3573681947
  H        -2.2968888295       12.6617388130       15.2028077661
  C        -1.9677457314       13.4896004735       20.2101984478
  H        -3.4440489114       12.3164747478       19.3512015485
  H        -3.7666555288       13.9601627907       19.2822393551
  C        -2.4672057735       13.2049664737       21.5623443696
  H        -1.0876415686       12.8083219159       20.1321009992
  H        -1.5408799695       14.4656286249       20.0263446685
  C        -1.4372106267       12.7256482060       22.5890067029
  H        -3.0297907102       12.2705595063       21.5609686514
  H        -3.1284777393       13.9830249383       21.9200873549
  C        -0.2894080442       13.7209930450       22.7930104739
  H        -1.9013066287       12.5513923169       23.5388861439
  H        -1.0048712992       11.7203836450       22.3819841019
  C         0.9069382692       13.0551079115       23.4317898914
  H         0.0701070491       14.2535824627       21.8601134034
  H        -0.4872251001       14.6320420658       23.4521486321
  C         1.4244887041       11.7064205816       22.8505099781
  C         0.4632853789       12.3555445994       24.7128653473
  C         2.1154527471       13.9361265369       23.6267651355
  C         1.0206058537       10.5852099157       23.6019769501
  C         1.9853883502       11.2884619320       21.6160140129
  C         0.5616997116       10.9809132585       24.8454690836
  C        -0.0241538594       12.9514701788       25.8861489835
  H         2.2938115151       14.4618189097       22.7112746339
  H         1.9307213898       14.6242606778       24.4217130265
  C         3.3800366950       13.2605156803       24.1467539810
  S         1.2631328620        9.0870615231       22.8659872794
  C         1.9467849824        9.8882366356       21.4937247997
  H         2.3004408918       12.1246135474       20.8950429868
  C         0.1145260119       10.2778574664       25.9684326152
  H         0.1049203291       14.0060378573       25.8593553328
  C        -0.4410368626       12.2606346607       26.9768960246
  H         3.8039904070       12.6831698370       23.3139119419
  H         3.2098134197       12.5363061336       24.9652621131
  C         4.5496915367       14.2080965520       24.5407084862
  C         2.1838710010        9.1879243746       20.1617102729
  C        -0.3744850901       10.9018256681       27.0503699720
  H         0.0023097289        9.2595240569       25.9843390413
  C        -0.8283777026       12.6745824960       28.2203899228
  H         5.1830193490       13.5695456941       25.1178401211
  H         4.2026288945       14.9893065394       25.2384724307
  C         5.3200279533       14.8520525856       23.4408693402
  C         2.2612725076        7.7759999778       20.0285664471
  C         2.6088665418        9.9849965061       19.0299355358
  C        -0.7685938955       10.2185533800       28.3204210392
  C        -1.1004424070       11.5682095750       29.0352233895
  S        -0.9762110365       14.1973663471       28.9688430653
  H         5.7581291310       15.7399108010       24.0029221144
  H         4.6415902659       15.2634434921       22.6824229997
  C         6.4219004387       14.0067420804       22.7404539751
  N         2.1145059995        6.8519293189       21.0888676255
  C         2.5877601251        7.1472944839       18.8735325739
  C         2.8257095863        9.3638770601       17.8047258065
  H         2.5528952412       11.0416328766       19.0985441953
  C         0.4274691979        9.4984626083       28.9722071239
  C        -2.0893761811        9.3304731090       28.2333767173
  C        -1.4956798678       12.0641195292       30.2798091150
  C        -1.4332006122       13.3955396102       30.3582190355
  H         7.2159564295       14.6601073538       22.6312574259
  H         6.8229503148       13.2150645906       23.3207887772
  C         6.1833748785       13.4721522769       21.2557657410
  S         2.4704903996        5.3445688263       20.5012716385
  N         2.6533373994        5.7894945710       18.9051754607
  C         2.8115634912        7.8879419930       17.6368312630
  H         3.0147587626       10.0152460041       16.8742035559
  H         0.4688647533        8.5331597226       28.4891814642
  H         0.0716212749        9.0975438284       29.9124163279
  C         1.7494683020       10.2445278693       28.9758676563
  H        -1.9847720584        8.4242060705       27.5960337864
  H        -2.3295461963        8.8306021416       29.1738390949
  C        -3.2489940085       10.1648422929       27.8027419899
  H        -1.6243494940       11.3926478844       31.0848838297
  C        -1.7515149071       14.2005184982       31.5543697896
  H         5.4930757982       14.1635649756       20.8125513573
  H         5.7488349698       12.4390372023       21.1637662929
  C         7.4784200681       13.4033632656       20.4131539775
  C         2.9662243254        7.2390048265       16.3315891824
  H         1.9924303523       10.5093795377       27.9470619453
  H         1.6912525881       11.1810088173       29.4324185321
  C         2.8824119505        9.3656017409       29.5448884692
  H        -2.8953598176       10.7159985316       26.9981157359
  H        -3.6361644229       10.8227012127       28.5546416505
  C        -4.4250939484        9.3313370180       27.3800053328
  C        -1.8030606743       15.6125404174       31.6447159851
  C        -1.9340515645       13.4509363689       32.8624910671
  H         8.2850073755       14.0720030274       20.7582991709
  H         7.7949694327       12.3489547501       20.5073870113
  C         7.2939825890       13.6969244841       18.9719092286
  H         2.7167126350        6.2245478594       16.3832137048
  C         3.3970128026        7.6588338474       15.1159103228
  H         3.0539827209        8.5709968560       28.8531692197
  H         2.6624716106        9.0134514840       30.5150965318
  C         4.1062431407       10.2607170812       29.7539098970
  H        -4.0037882337        8.5881782125       26.6937165164
  H        -4.8667164231        8.8020373185       28.2101239516
  C        -5.4701304082       10.2693210938       26.6879316888
  N        -1.6247403150       16.5738512842       30.6264780639
  C        -2.1033676113       16.2352195506       32.9026701552
  C        -2.3081326021       14.0311771155       34.0651427729
  H        -1.9351173642       12.4034377123       32.9015055490
  H         6.8503996277       14.6009445198       18.8611900206
  H         8.1616335437       13.6626873355       18.4155326566
  H         6.5320357523       13.0277758057       18.5196746786
  S         3.6674374628        9.3384026259       14.5881731225
  C         3.4822454814        6.6507593097       14.0648669163
  H         4.1153660623       10.8255489534       28.8586510484
  H         3.7743474715       10.9724852304       30.4821606721
  C         5.4086219821        9.4319349319       30.0412106132
  H        -5.0979189907       10.7309483234       25.8482782519
  H        -5.6434720950       11.0829851869       27.3845809491
  C        -6.6392601154        9.4627692936       26.2592978278
  S        -1.7823095303       18.0337630488       31.2477202322
  N        -2.0979312562       17.6138781817       32.7989782572
  C        -2.3091864848       15.5366881041       34.1447967706
  H        -2.4549065420       13.3907841027       34.9372500541
  C         3.8547828254        8.6055071463       13.0225637444
  N         3.7903432584        7.2558835469       12.8985752051
  O         3.1993715792        5.4820752709       14.2333922469
  H         6.3422154807       10.0138295501       29.9246446200
  H         5.5730062243        8.6938574593       29.2277963381
  C         5.5679197116        8.8130848106       31.4874966647
  H        -6.3250067203        8.7518189361       25.5222032006
  H        -6.9990871401        8.8552819743       27.1144223068
  C        -7.7242231252       10.3844796038       25.8024166269
  C        -2.5827041675       16.2845390703       35.2345137295
  S         4.1883724876        9.5546965194       11.5029358475
  C         3.8555215055        6.5328831671       11.6250374230
  H         6.2687570181        9.5488049201       31.7801107185
  H         4.7233911869        8.9299944932       32.0833029255
  C         6.1094083562        7.4293296645       31.4556316585
  H        -7.6341538931       10.5547523871       24.7444229970
  H        -7.6279716394       11.3402442170       26.3777642931
  C        -9.0057973949        9.5706877336       25.9286675386
  H        -2.3456359300       17.3095590958       35.2414933378
  C        -3.2052753476       16.0121809453       36.3971459233
  H         4.5212541374        6.8150983721       10.8163242406
  H         4.2298724193        5.5626751243       11.8306057219
  C         2.4355412969        6.4406736658       10.9716278123
  H         6.5335802501        7.2333804152       32.4858871014
  H         7.0011920293        7.3939948222       30.8194590028
  C         5.1847739019        6.3112511964       31.0430286469
  H        -9.6514523601        9.7192865831       25.0081684126
  H        -8.7609893257        8.5195218787       26.0584470849
  C        -9.8566563290       10.0537175217       27.0814605708
  S        -3.8497826354       14.3897595856       36.7725967418
  C        -3.3298121200       16.9628712768       37.5248607466
  H         2.5577329449        6.1391726614        9.9030892426
  H         1.9524194599        5.5952592828       11.4927976139
  H         1.9473441193        7.3876928932       11.0579357529
  H         4.3806542512        6.6883146596       30.4536145462
  H         4.8187012613        5.8079834363       31.9403467499
  H         5.7114006104        5.6550770577       30.4447608312
  H        -9.1782966981       10.2485081441       27.8181848362
  H       -10.5275300503        9.2148483526       27.2955856918
  H       -10.3467367960       10.9554294354       26.7412871965
  C        -4.3121067061       15.0451700242       38.3519251476
  N        -3.9400127031       16.3678329207       38.5923438895
  O        -2.8911750527       18.1379080310       37.4674733202
  S        -4.7985777913       13.9529770086       39.6883381464
  C        -4.0144355735       17.0360488548       39.8828339846
  H        -4.5162427131       18.0492303137       39.6981637266
  H        -4.7011552368       16.5033970957       40.4897692392
  C        -2.6455676211       17.2620013306       40.5897817255
  H        -2.7673978225       17.6992253844       41.5872764171
  H        -2.2669162175       16.2685656408       40.7197387249
  H        -1.9415599455       17.8391188308       40.0492553446
