352
i=
  H         3.2639936826        1.9322467979       13.5198253367
  C         4.0275523804        2.0470158977       12.7012167055
  H         4.2263291163        1.0162898598       12.4082578944
  C         3.4749998534        2.7307719025       11.4456580155
  C         5.2545471290        2.8436459300       13.2373418093
  C         4.3838860107        2.8300128986       10.2673458034
  H         3.0239956831        3.6905513369       11.7317865739
  H         2.6047163624        2.0935541563       11.1973412724
  H         5.4888026069        3.6469461233       12.5894495550
  H         6.0391330369        2.0881080789       13.2594196594
  H         5.1629854468        3.0974549293       14.2201621103
  C         4.9692605363        1.4961821812        9.7907527228
  H         3.9319066208        3.3674882908        9.4767871365
  H         5.1951967829        3.5394041497       10.5602270646
  C         5.6640990200        1.7050194351        8.4444293891
  H         4.1406885209        0.8238978021        9.5572468358
  H         5.6744251462        0.9793052175       10.4585646135
  C         7.0136572816        2.6010837107        8.4732970933
  H         4.9980117910        2.1404011641        7.6832991459
  H         5.9372193860        0.6976038849        8.0270765031
  C         8.1825227205        2.0692510337        9.2001370012
  H         7.3127248412        2.8258213043        7.4192148623
  H         6.8261359800        3.6059763793        8.9165212604
  C         9.4743916913        2.9085181130        9.2915753167
  H         8.4545672370        1.2187371075        8.6653804842
  H         7.8802659718        1.8558544197       10.2487992667
  C         9.2060304704        4.2567864530        9.9738772952
  C         9.7932904488        3.4681910209        7.9761982195
  C        10.5992796043        2.1000956509        9.9402970606
  C         9.3522469755        5.3050841779        9.0769354542
  C         8.7902564722        4.6738588911       11.2576559893
  C         9.6907443852        4.8032595183        7.8216143949
  C        10.0821514602        2.7464197490        6.7892080597
  H        10.0846455813        1.7140358370       10.8451304287
  H        10.8054759906        1.2413153538        9.2557666198
  C        11.8762850438        2.8279956284       10.3572075565
  S         9.1554072847        6.8640456123        9.7645681800
  C         8.5955443252        6.0540015598       11.2407382180
  H         8.6053715450        3.8502697646       12.0092316118
  C         9.9689370839        5.3519985661        6.5536132647
  H        10.0918428232        1.7030427379        6.9451755500
  C        10.3946067682        3.3105757227        5.5586855870
  H        11.5633820886        3.8076327779       10.7696937486
  H        12.4466969149        2.9462065798        9.4008381545
  C        12.7048787168        2.0915196346       11.3586409447
  C         8.1458971749        6.7743362965       12.4873455292
  C        10.3191297395        4.6800223198        5.3583898538
  H        10.0617055170        6.4235042469        6.4956665149
  C        10.8181563562        2.8559938978        4.3089039675
  H        13.8334634086        2.1132247710       11.2192674290
  H        12.2423929444        1.0757518447       11.1252171460
  C        12.2929921907        2.5384530530       12.7297992999
  C         8.0915998753        8.2019460425       12.7305688990
  C         7.8032596326        5.9330946538       13.6559207849
  C        10.6227440944        5.3320243633        4.0271609329
  C        10.8484850751        3.9154905188        3.3753409294
  S        11.1419538862        1.3354884096        3.6198659449
  H        11.9541380354        3.5918718071       12.7720972193
  H        11.4528940927        1.9642623024       13.0251705843
  C        13.4663655076        2.5137553964       13.6721891319
  N         8.1710029312        9.1665200084       11.7744209076
  C         7.7259505044        8.6830821546       13.9505997503
  C         7.4990409616        6.4781366706       14.9230421660
  H         7.5872905465        4.8762755547       13.5248876112
  C        11.9808151563        6.1275526745        3.9091836843
  C         9.5361709852        6.0677770035        3.2925285173
  C        11.2183242866        3.4392932036        2.0871307341
  C        11.4012439231        2.0767060035        2.0303543857
  H        14.0270804129        3.3659844509       13.3495086374
  H        14.1488126605        1.6252493560       13.5186918665
  C        13.1640319133        2.6571295650       15.2065229991
  S         8.0209629350       10.5731314180       12.4866528731
  N         7.7461909155       10.0644037326       13.9542392718
  C         7.4867581570        7.9089914907       15.1566353620
  H         7.4279905766        5.7761646993       15.7423041021
  H        11.8728476821        7.1754345234        4.2774894726
  H        12.2063157659        6.0680825725        2.8427471583
  C        13.1700653735        5.4638441265        4.5803319871
  H         9.3307309779        7.0234787322        3.8288142774
  H         9.7859444073        6.2020271347        2.1892356438
  C         8.2019571100        5.2948192684        3.2632436228
  H        11.2759789995        4.0970382092        1.2598797078
  C        11.6188936097        1.2035402111        0.8134768654
  H        13.9261441735        3.1444863614       15.6775528670
  H        12.2771532448        3.2816330305       15.3076811164
  C        13.0946141506        1.2387223685       15.7398292984
  C         7.1894854510        8.5934502341       16.3863286304
  H        12.9959558650        5.2013092751        5.6308116394
  H        13.2624724703        4.4866334078        4.1855693815
  C        14.5297600874        6.1531825381        4.2914362777
  H         7.7150204931        5.2798604106        4.2376072889
  H         8.3211765527        4.2914807242        3.0188930020
  C         7.2996603358        5.8277577719        2.1797425136
  C        11.8450596555       -0.1765701505        0.7181260850
  C        11.8116049194        1.8923981579       -0.4860619808
  H        14.1016382015        0.9027615830       16.0011243250
  H        12.6247949310        0.6594781049       14.9649163538
  C        12.2744706543        1.3439943818       16.9491570438
  H         7.3567987074        9.5950354046       16.4973562744
  C         6.9468135349        8.1545357103       17.6723147226
  H        14.6067828810        7.0885235436        4.9275704334
  H        14.7084268549        6.3548390126        3.2179904832
  C        15.7350247860        5.2131522045        4.6478483521
  H         7.4217629654        6.9227934945        2.1442973015
  H         7.5559325710        5.5108229516        1.1494861805
  C         5.9090117720        5.3248458273        2.4422842442
  N        11.5106573576       -1.0073545815        1.7847356095
  C        12.0558766306       -0.8154119862       -0.4852885487
  C        12.0310723366        1.2218793871       -1.6444205526
  H        11.7552949828        3.0420760106       -0.4329121772
  H        12.0683055548        2.3545515850       17.1976991425
  H        12.9708031936        1.2097498763       17.7291763813
  H        11.3730156220        0.7754530535       17.0188891565
  S         6.6710000028        6.5591630614       18.1682060353
  C         6.9046193831        9.1110622964       18.7718959959
  H        15.3417626642        4.2922584030        5.0552473351
  H        16.1594473621        4.8451927695        3.7365984462
  C        16.7437784696        5.9774036018        5.4812561670
  H         5.6447076671        5.6346101649        3.4768620627
  H         5.8898866354        4.2256341768        2.4676242283
  C         4.8618910068        5.8927818257        1.5430603163
  S        11.6722123622       -2.5528066997        1.2565530033
  N        12.0308056315       -2.1996342919       -0.3248676859
  C        12.2517259690       -0.1993521930       -1.7375471081
  H        11.9571028884        1.6998158964       -2.5503007478
  C         6.3817002092        7.1360579113       19.7454041926
  N         6.5579408052        8.4495266503       19.9218213357
  O         7.1441783260       10.2967397223       18.6257748187
  H        17.4299774356        6.5844531659        4.9053154995
  H        16.2452352596        6.6210603556        6.2417038576
  C        17.5642374169        4.9549547566        6.3041780908
  H         5.0237179798        5.6359725852        0.4977912206
  H         3.9000680697        5.4702580976        1.8071381008
  C         4.7189798675        7.3500373522        1.7862012719
  C        12.6371729641       -0.9787929397       -2.8882188226
  S         5.8315798209        6.0715238755       21.1277014932
  C         6.6309571797        9.1261331550       21.2485251260
  H        16.9611986700        4.7332832893        7.1750286186
  H        17.5869931482        3.9997646154        5.7704723845
  C        18.9106040095        5.5018143678        6.7142590576
  H         5.4968843162        7.5797125857        2.5066218529
  H         3.7816932355        7.4574580235        2.2743765445
  C         4.7099808165        8.2606804000        0.5385383992
  H        12.6863388652       -2.0595215270       -2.7722482004
  C        13.1414908460       -0.6272859627       -4.1070665943
  H         5.8134684254        8.8128719420       21.9477818658
  H         6.4198928905       10.1290296565       21.2045990500
  C         8.0090329253        8.9594690569       21.8252951901
  H        19.2344363757        4.9097426907        7.5947914014
  H        18.6394914802        6.5551771669        6.9276734127
  C        19.9369450691        5.3613536543        5.5649831442
  H         5.5669881732        8.0844949952       -0.1331451456
  H         3.8436708219        7.8878444557       -0.1025850200
  C         4.6253207517        9.7915867175        0.7722346380
  S        13.5996167630        1.0228586576       -4.5649010200
  C        13.4596754564       -1.6352911665       -5.1503090687
  H         8.1041733811        8.1420241406       22.5314307409
  H         8.3275936950        9.8595309644       22.3069754394
  H         8.7011560922        8.8607992356       21.0009524612
  H        20.9724397381        5.8286791912        5.7458947396
  H        20.1981598033        4.2314112970        5.3846381412
  H        19.4742329868        5.7060488407        4.6328437898
  H         3.8928846921       10.0171837233        1.5907440864
  H         5.4925236250       10.0148430713        1.2881506712
  H         4.6511027972       10.4057837193       -0.0813228282
  C        14.2985384485        0.3141506014       -5.9816596805
  N        14.0454017898       -1.0107228846       -6.1204848067
  O        13.0066010146       -2.7912005964       -5.1921326437
  S        15.0591893464        1.3433663548       -7.2038583447
  C        14.3583250013       -1.7571188064       -7.3525298567
  H        14.6307966335       -2.7708348797       -7.1634508894
  H        15.1552512937       -1.2087018835       -7.8692415353
  C        13.2077920478       -1.8434896314       -8.3106620376
  H        12.3894327237       -2.4324892527       -7.9619337047
  H        13.4138437200       -2.4095331316       -9.1933773208
  H        12.7329615281       -0.8871152625       -8.5568476652
  H        -1.9587427528       12.2094137260       17.1282844647
  C        -1.7547167886       13.1469619645       16.4974598312
  H        -0.7343836156       13.1804946703       16.0326154818
  C        -1.9824919469       14.3530404134       17.4697609309
  C        -2.6893436941       13.1912445723       15.3355864235
  C        -2.4817713975       13.8884043774       18.9143909467
  H        -1.0935394594       14.9280002486       17.5417718515
  H        -2.6432202937       15.0098877799       16.9533700213
  H        -2.5298258879       13.9753566539       14.6440985316
  H        -2.6479887748       12.1811094571       14.8760157565
  H        -3.6872140777       13.3193837755       15.6446384981
  C        -1.3996188571       13.4789720245       19.8954727981
  H        -3.1743097146       13.0121666524       18.7511854027
  H        -3.2605586321       14.5997522560       19.2734925254
  C        -1.9207461795       13.3012131338       21.3193202249
  H        -0.9339177552       12.4856826579       19.5055975421
  H        -0.5315607260       14.1345037837       19.9410998453
  C        -0.9038713531       12.6178077325       22.2092993188
  H        -2.8871862265       12.7807558464       21.2730243357
  H        -2.0634375996       14.3437158843       21.6765103731
  C         0.1400225466       13.6116844456       22.7484997640
  H        -1.5042843318       12.0960950956       22.9797259486
  H        -0.3693024204       11.9453629572       21.5307726633
  C         1.4206692429       12.9424439195       23.3322302451
  H         0.5968119750       14.1735712900       22.0241031123
  H        -0.2341525011       14.4240323343       23.4295038578
  C         1.9610698604       11.5877743632       22.7804724982
  C         1.0789816089       12.2798924973       24.6953818925
  C         2.5524399849       13.9783501781       23.6281884547
  C         1.8180712587       10.5014040258       23.6429762444
  C         2.3785570075       11.1869217955       21.5088011842
  C         1.3261441542       10.9228598153       24.8417329656
  C         0.5038335084       12.8402349451       25.9092619160
  H         2.5925987000       14.5824802917       22.7335206688
  H         2.2622656148       14.6211439176       24.3962332429
  C         3.9234347171       13.4651508129       24.0328346949
  S         2.1466732853        8.9959843933       22.9232000698
  C         2.6388796328        9.8782368840       21.4695121727
  H         2.3888304169       11.9749844386       20.7698415306
  C         0.9352032774       10.2895053888       25.9784388044
  H         0.4293958582       13.8839433403       25.9224706131
  C         0.1923703863       12.1253548425       27.0188961956
  H         4.3126122603       12.9134700345       23.2123748842
  H         3.8710724530       12.7714797232       24.8830866655
  C         4.9352443015       14.5234383328       24.5154395251
  C         3.1499109804        9.1729603926       20.2279146501
  C         0.3625169395       10.8174997457       27.1184068406
  H         1.0168332476        9.2576629328       25.8964574566
  C        -0.2312110202       12.4430465157       28.3230091137
  H         5.7056639272       14.0179102075       25.1345409455
  H         4.3989079537       15.3507913580       25.0524894991
  C         5.7007443357       15.1182777487       23.3204258803
  C         3.0115950052        7.7581623624       20.0076155428
  C         3.5760860668       10.0312822020       19.0386194154
  C         0.0301782115       10.0365195035       28.3005416985
  C        -0.3523792903       11.3047334202       29.0835089074
  S        -0.5574267883       13.9539791380       29.1725924043
  H         6.3239675907       15.8736245889       23.6264209035
  H         4.9421005749       15.6455060729       22.7133079367
  C         6.5708896454       14.1229770124       22.4048143521
  N         2.6460137665        6.8462852069       20.9466310571
  C         3.1592146212        7.2119486823       18.7495608355
  C         3.8966583818        9.4320901214       17.8253207946
  H         3.7696213706       11.0889916248       19.1650733007
  C         1.2687335561        9.2462803706       28.8399981959
  C        -1.1878596562        9.0968766861       28.0522970630
  C        -0.7263975841       11.6564106588       30.3838431250
  C        -0.9553401874       13.0224973223       30.6122339238
  H         7.6141646707       14.3156322642       22.3856022909
  H         6.6916064111       13.0840797899       22.7556131130
  C         5.9463416533       14.0619632374       21.0596409621
  S         2.4723733918        5.3996623062       20.2127128558
  N         2.9329222334        5.8720546111       18.7067094129
  C         3.6138005885        8.0197896917       17.6371350732
  H         4.4190818321       10.0724275564       17.0989349812
  H         1.6926863719        8.6366028672       28.0538074036
  H         0.9885642770        8.5928697429       29.6477734251
  C         2.4271632506       10.1409884584       29.2482306935
  H        -0.8765215294        8.4870166641       27.2986418129
  H        -1.4333083482        8.3280697774       28.8600157463
  C        -2.4596362469        9.8270341968       27.6533971578
  H        -0.8276088258       10.8862249102       31.1450016263
  C        -1.3375377680       13.6715679234       31.9081856449
  H         5.9616992517       15.0056045206       20.4902785168
  H         4.8802355399       13.7417457475       21.1419465359
  C         6.6840762112       13.1828525907       20.0640003008
  C         3.7155037625        7.4128054185       16.3863993280
  H         2.8176838578       10.8008889851       28.4765393643
  H         2.1213140175       10.7516732499       30.0428870960
  C         3.6538257419        9.3279768446       29.6830818487
  H        -2.2532398328       10.3755201667       26.6875018002
  H        -2.7282521944       10.5770954574       28.4012764136
  C        -3.5049594436        8.7687155226       27.3326025805
  C        -1.4489063411       15.1026786176       32.1861492421
  C        -1.4402285034       12.7986249259       33.0974753235
  H         7.6519889503       12.9010458709       20.5610672137
  H         6.1121980371       12.2505941637       19.8252310835
  C         7.0417482902       13.9404137405       18.7427332834
  H         3.4839820668        6.3950653878       16.4396839733
  C         4.0915189884        7.8715295298       15.1508739002
  H         4.1503864541        8.7940259703       28.8435251803
  H         3.4217253525        8.4239017671       30.2783637066
  C         4.5977731193       10.1865077930       30.5509630745
  H        -3.0926456225        8.1866361176       26.4757089207
  H        -3.4717717816        8.1105904082       28.1485032365
  C        -4.8906456861        9.4004169487       27.0468495872
  N        -1.3210253827       16.0607341213       31.2380674229
  C        -1.6959075570       15.5924081637       33.4213685355
  C        -1.6749081485       13.3628758531       34.3870747035
  H        -1.2501869669       11.7564061261       33.0176648774
  H         7.6856863326       14.8548864880       18.8773084222
  H         7.5126114349       13.2805471632       18.0359360745
  H         6.1595591151       14.2534494802       18.1335197749
  S         4.3838457312        9.5038922824       14.5579276392
  C         4.0590185688        6.8494653418       14.0792978140
  H         4.4726040812       11.2400447203       30.2123791290
  H         4.2400138018       10.0028482446       31.5988183491
  C         6.1133189766        9.8417040038       30.6459698030
  H        -5.0116788185       10.3519121829       27.5326814113
  H        -5.6770229975        8.7700057689       27.4146043079
  C        -5.1110954730        9.7523275447       25.6047644809
  S        -1.2665643635       17.4647979847       31.9842272881
  N        -1.7089470319       16.9574531147       33.4719825387
  C        -1.9530565446       14.7704871281       34.5360166663
  H        -1.6991311121       12.7530155513       35.2554949525
  C         4.4100913759        8.7458278657       12.9177606657
  N         4.4039230817        7.4201674278       12.9028355377
  O         3.9223653637        5.6521071642       14.2442892793
  H         6.5405004849       10.6598326660       31.1633631020
  H         6.4030079641        9.7156327681       29.6267368769
  C         6.3901049509        8.5550322511       31.3226064090
  H        -4.3751768519       10.4148538193       25.2728632938
  H        -4.9475349141        8.8574501715       24.9943834131
  C        -6.4754766428       10.4700915387       25.4693638110
  C        -2.3412204724       15.4165402933       35.7397346458
  S         4.7645911163        9.6146945204       11.4540655711
  C         4.4491218119        6.6338282490       11.7301498363
  H         7.2187997858        8.6080396133       32.0572206751
  H         5.5028425733        8.1837733459       31.8971135511
  C         6.8038889454        7.4333332671       30.2958694763
  H        -6.3193804504       10.9174613459       24.4997499080
  H        -6.4173463577       11.3583627912       26.1699852460
  C        -7.7131450251        9.6726336365       25.6525417213
  H        -1.9634186432       16.4114606855       35.8471595164
  C        -2.9113688993       15.0369516128       36.9345293713
  H         5.2224727704        6.9264897862       11.0394464503
  H         4.7943088848        5.6284574146       11.8409572299
  C         3.0740450299        6.7174183329       11.1701202920
  H         7.6348216249        7.6838587249       29.6387135904
  H         5.9956816389        7.1688964845       29.5893058169
  C         6.9957931827        6.0936757166       31.0238461492
  H        -7.5511241524        8.6692386856       25.3781214096
  H        -7.8186081987        9.5361859562       26.7192024306
  C        -8.9848429602       10.1898668171       25.0087922556
  S        -3.5004059709       13.4626495360       37.3781964017
  C        -3.0462388632       16.1043845020       37.9473387825
  H         2.8847934169        5.8978917618       10.4854302873
  H         2.3401348832        6.5084218473       11.9126538433
  H         2.8635353910        7.6769969318       10.6616671762
  H         6.1214048820        5.5186206135       31.3741839464
  H         7.6996001606        6.2269132695       31.8265593949
  H         7.5009791201        5.4773047396       30.2788099661
  H        -9.1782704099       11.1208647713       25.4599267945
  H        -9.7009532027        9.3673906538       25.0779840858
  H        -8.7459256278       10.3152977891       23.9423389150
  C        -3.8668244109       14.2656039164       38.9382332630
  N        -3.6946144260       15.6380717892       39.0420168670
  O        -2.4057528018       17.1705421106       37.8612238208
  S        -4.4109934723       13.4561361967       40.3893745235
  C        -3.8750847001       16.4855216461       40.2749503563
  H        -4.0085521987       17.5237092795       40.1674356542
  H        -4.8339700572       16.2452863081       40.7605376127
  C        -2.8450856750       16.2334582779       41.3037577904
  H        -1.8717063365       16.7040746063       41.1710278984
  H        -3.1736961335       16.4769331340       42.3082287629
  H        -2.5973564485       15.1652789186       41.3143175537
