352
i=
  H         4.1406912746        1.6121684885       12.7185849416
  C         3.6996901880        2.5961059410       12.6907988760
  H         4.5075977790        3.3678647313       12.7199889106
  C         2.7152487918        2.8137776305       11.4683755810
  C         3.1314878210        2.7701441193       14.0991060616
  C         3.5413001642        2.9701344233       10.1466828367
  H         2.2444353182        3.7297044805       11.5623811132
  H         1.9562059725        2.0256795631       11.4086162910
  H         3.8895619645        2.3605977513       14.8014584422
  H         2.2053611883        2.2695645539       14.0944838340
  H         2.8971778739        3.8179044300       14.3121210236
  C         4.3625092133        1.7903787667        9.8570223795
  H         2.8120562996        3.1471756691        9.3396496623
  H         4.1234282660        3.8356999531       10.2187794016
  C         5.0697065693        1.8161051756        8.6101280507
  H         3.7450038714        0.8955617791        9.7596313117
  H         5.0444881174        1.5668428630       10.6916299117
  C         6.2967633623        2.6809896285        8.4646681012
  H         4.3743802522        1.8876557005        7.7492216660
  H         5.3063480692        0.7734789835        8.2893259505
  C         7.5087561667        1.9448715533        9.1164965883
  H         6.5158534100        2.9374757047        7.4423181625
  H         6.0183366044        3.5607408078        9.0551589136
  C         8.7270570933        2.8529161444        9.1311947778
  H         7.7755542351        1.0310329391        8.6016606784
  H         7.2535380449        1.6625778236       10.1522517625
  C         8.2513916625        4.1899605546        9.8249946278
  C         9.0766088123        3.5707048150        7.9118153465
  C        10.0050901525        2.2937389318        9.7330122738
  C         8.4597551050        5.3228647425        9.0452803002
  C         7.9179875103        4.5275973359       11.1836895126
  C         8.9414664263        4.9266922251        7.8141207629
  C         9.5482752201        2.9574899574        6.7570282168
  H         9.9009670711        1.8305202540       10.7015220635
  H        10.3152024415        1.4697623768        9.0963236907
  C        11.2082940161        3.2309323808        9.9897196001
  S         7.9860421974        6.7672971757        9.8796088436
  C         7.6961411129        5.8492637034       11.3466220657
  H         7.7027769087        3.7177022912       11.8785657579
  C         9.3705085922        5.5629373046        6.7062257858
  H         9.6042988571        1.8827869132        6.7847615048
  C         9.9202382464        3.6331837068        5.6237893865
  H        10.7381536123        4.1043480976       10.5091541717
  H        11.5494846459        3.5976277590        9.0075197310
  C        12.2857430514        2.5880953198       10.8342863001
  C         7.3597899829        6.4760992331       12.6727792110
  C         9.8747707257        4.9511425036        5.5964600777
  H         9.2282256485        6.6819797543        6.6854869578
  C        10.3087563640        3.2631907868        4.3654144291
  H        13.1920374230        2.5916262058       10.3142773898
  H        12.1786775931        1.5020805802       10.6996663952
  C        12.2123068162        2.9795434978       12.3173511266
  C         7.4351614635        7.8995735856       12.9487392948
  C         6.7824813126        5.5897426639       13.7289911087
  C        10.3113226445        5.6126535873        4.3285967162
  C        10.4667704286        4.3024055701        3.5369211307
  S        10.6114146040        1.7642553953        3.6210097134
  H        13.1011819959        3.6281355097       12.4958195777
  H        11.4737599026        3.6662423685       12.5749317632
  C        12.1991850721        1.8361132957       13.2922679163
  N         7.8596668828        8.8603749981       12.0126249158
  C         7.1634328827        8.4321296924       14.1838913558
  C         6.4328287726        6.1812835480       14.9595204443
  H         6.4058286662        4.6322401840       13.4877514959
  C        11.7554132614        6.2364448449        4.5168829052
  C         9.2781393652        6.4980115382        3.6688761138
  C        10.8600774648        3.8703731765        2.2411067389
  C        10.9568166863        2.5408628036        2.1062558724
  H        13.2085373839        1.3701978152       13.2043015125
  H        11.4540508318        1.2311578461       12.9372734613
  C        11.9279511978        2.2106985556       14.7486567193
  S         7.8668603732       10.3136925086       12.7610791578
  N         7.5322660792        9.7583743861       14.2409641815
  C         6.6977136250        7.6606800403       15.2517845342
  H         6.0559005489        5.4930517738       15.6620253051
  H        11.7464467073        7.2342698018        4.9916380076
  H        12.0098751070        6.5183828640        3.5815166490
  C        12.9529377638        5.4306534941        4.9336954428
  H         9.0281471093        7.3671353647        4.2881309401
  H         9.6955621559        6.8964653879        2.7314181709
  C         7.9063138963        5.7449626923        3.4454550762
  H        11.1043333603        4.5966489306        1.5159858707
  C        11.2875540549        1.7561781426        0.8423977987
  H        11.9003904792        3.2960597751       14.8576631184
  H        10.9264290838        1.7799926510       14.9300748215
  C        12.8978606666        1.4419189563       15.6836688170
  C         6.5029712757        8.3896552405       16.4981552555
  H        12.7427959000        5.0341930719        5.8996434087
  H        12.9998638599        4.5196153720        4.3356415846
  C        14.1836573282        6.2946043242        4.8942601511
  H         7.6056961161        5.4820798373        4.4909051455
  H         7.8999619348        4.8117595074        2.8289815739
  C         7.0571185997        6.6948355781        2.7743542181
  C        11.4248754978        0.3713969942        0.7047994805
  C        11.5006145644        2.5089318306       -0.4335118625
  H        13.8865855308        1.8941862894       15.4640655603
  H        12.8141556807        0.4197479123       15.3975832811
  C        12.4745211219        1.5884210251       17.1886600063
  H         6.8436217054        9.4252589893       16.4816650280
  C         6.1930443533        8.0025376165       17.7548321072
  H        14.1285530129        7.2547417067        5.4809798022
  H        14.4486932557        6.4599167479        3.8344817032
  C        15.2842775667        5.4092082511        5.4315076397
  H         6.8633192398        7.5143474375        3.4451107474
  H         7.4190084799        7.1478347803        1.8158488184
  C         5.7017099175        6.0149516358        2.3928461563
  N        11.1373868214       -0.5268825821        1.7587253042
  C        11.6539789778       -0.2920453495       -0.4923070256
  C        11.9070050245        1.8881031648       -1.5677177956
  H        11.2615872728        3.5829647942       -0.5979414526
  H        12.5308119758        2.6958792270       17.4106360766
  H        13.1840346633        1.0727098246       17.8269413933
  H        11.4971533943        1.1221545756       17.3830585557
  S         5.9435865981        6.3931575929       18.3361037556
  C         6.1175504755        9.0387593969       18.8036088450
  H        14.7945684050        4.7690444375        6.2313170611
  H        15.5407367399        4.8305857063        4.5522552186
  C        16.4930289560        6.2278643209        5.8641319802
  H         5.2100603850        5.5959593593        3.2958801542
  H         5.9203306280        5.1283295472        1.7418057530
  C         4.7326893005        6.9542581021        1.7332291272
  S        11.3550675120       -2.0595434520        1.1925657270
  N        11.6641202079       -1.7364544165       -0.3587499384
  C        11.9582710881        0.3994198471       -1.6596749066
  H        12.0627517376        2.4012219401       -2.5253539126
  C         5.6742596112        7.1275812337       19.8985724042
  N         5.7441983904        8.4874262211       19.9423322313
  O         6.3647162436       10.2026925096       18.5667371679
  H        16.9192961141        6.8683740065        5.1229303604
  H        16.1911258904        6.8285562773        6.7535035569
  C        17.6205533674        5.2462903420        6.3331125399
  H         5.1153197426        7.4609248957        0.8988205368
  H         3.8975347386        6.4224632220        1.3423044429
  C         4.1363983006        7.8323278218        2.8692214570
  C        12.1177909595       -0.3316920813       -2.9414598403
  S         5.2869709292        6.3294402712       21.3433733290
  C         5.5953489418        9.3060054880       21.1635832865
  H        17.2709293059        4.4210496248        6.9248214212
  H        18.0716636825        4.7276255189        5.4197725158
  C        18.5992187761        6.1051108620        7.1237996064
  H         4.8748471571        8.2381040874        3.5684135401
  H         3.4623819132        7.1018546319        3.2864698585
  C         3.1784282906        8.9624281265        2.4761069033
  H        11.9307147548       -1.3617507081       -2.7604398663
  C        12.6083803448       -0.0585117052       -4.1914787218
  H         4.7002260013        9.0119854430       21.8500972254
  H         5.4046792646       10.2786160543       20.8063420527
  C         6.9016317122        9.5514345611       21.8483557829
  H        18.5362705058        5.9612748739        8.1495630143
  H        18.3477907639        7.2232020022        6.9823485392
  C        20.0190668256        5.9448949157        6.5921793813
  H         2.1561328126        8.6939805319        2.5243517759
  H         3.1431541208        9.7873677895        3.1830849451
  C         3.5980667895        9.4824430828        1.0676236788
  S        13.1220229486        1.4641510542       -4.7372701516
  C        12.7427223019       -1.1949198620       -5.1276576881
  H         7.7137109571        9.0441650813       21.4280392356
  H         6.7438041544        9.1413956392       22.9370612840
  H         7.1562063520       10.6019669167       21.7780850878
  H        20.6531830181        6.4496398721        7.3140929918
  H        20.3596195312        4.9390270273        6.4851074918
  H        20.1418862372        6.3458518954        5.5765974801
  H         3.1928745597       10.4972862227        0.9314641123
  H         4.6427487105        9.7205300900        1.1077036916
  H         3.2373155184        8.9370325577        0.2466305481
  C        13.6426840268        0.5892513809       -6.1786910378
  N        13.4236071933       -0.7688471423       -6.1590750675
  O        12.5058538790       -2.3983725778       -4.9014692989
  S        14.5290114658        1.3595354720       -7.4074234001
  C        13.7102555528       -1.5751243065       -7.3481162045
  H        14.0709421774       -2.5872065688       -7.0328623484
  H        14.3865276034       -1.1664926086       -8.0868200214
  C        12.4264277206       -1.8365341606       -8.0588005375
  H        12.8420241644       -2.5653530103       -8.7693565868
  H        12.1221541411       -0.9618426899       -8.6354590517
  H        11.6469768751       -2.2532764734       -7.3938806087
  H        -3.2205038412       13.0197621132       16.1758252648
  C        -2.3722392158       13.7063626761       16.3655781420
  H        -1.5268217323       13.1914638605       16.6753882085
  C        -2.8344880212       14.7295355607       17.3927489950
  C        -2.0444818021       14.2205730445       14.9925865664
  C        -3.1606977023       13.9992909359       18.7542793868
  H        -2.0846721753       15.5248228643       17.6080310014
  H        -3.7092023296       15.2609188616       17.0433923765
  H        -2.1380833672       13.3364661235       14.3034118247
  H        -2.7144671329       14.9822957047       14.6446449689
  H        -0.9505079560       14.5314706436       15.0668117041
  C        -1.9729290875       13.6955228122       19.6611496754
  H        -3.7977136458       13.1598164424       18.5462077623
  H        -3.7600308343       14.7753292722       19.2427041103
  C        -2.3503654986       13.7038094314       21.1482443206
  H        -1.4731462624       12.7832439514       19.3359566932
  H        -1.2467040517       14.5432062721       19.4917060327
  C        -1.3242956907       12.9730771674       22.0159188333
  H        -3.2404687600       13.1087736069       21.2302257586
  H        -2.5787736188       14.6668681993       21.4106937666
  C        -0.1318716903       13.9288508343       22.3630762805
  H        -1.7344318208       12.5010694699       22.9182700713
  H        -1.0519130213       12.1477394457       21.3817011986
  C         1.0900184950       13.1979425526       23.0602470634
  H         0.2532938960       14.4006658632       21.5261114025
  H        -0.5916712637       14.8165021570       22.9402595669
  C         1.4082014162       11.8745511257       22.2468468089
  C         0.6458127830       12.4212210842       24.2467785210
  C         2.3017123626       14.1258338754       23.2791881773
  C         1.0118924931       10.8366993790       23.0014576067
  C         2.0145631353       11.4892714092       21.0709430188
  C         0.5606689885       11.1135253302       24.2632413853
  C         0.2681068282       13.0332710867       25.4428846794
  H         2.5388386061       14.6063907049       22.4192259112
  H         2.0347065177       14.8476507888       24.0154446997
  C         3.5808694396       13.5491404188       24.0059886990
  S         1.2174916235        9.2293684050       22.2060515711
  C         1.9707242046       10.0988817680       20.9158086177
  H         2.4835574555       12.2363030387       20.4461303336
  C         0.1536080327       10.4571794198       25.4047826746
  H         0.2506332911       14.0725819490       25.4092930000
  C        -0.2420297965       12.4538958839       26.5433255987
  H         3.8911039689       12.7148103337       23.3611854405
  H         3.2885911854       13.0151899797       24.9489250085
  C         4.6222913886       14.5857273473       24.3985224081
  C         2.4631191323        9.4366604477       19.6427430088
  C        -0.3397444114       11.1139706628       26.5940176132
  H         0.1875993824        9.3221169309       25.3369240139
  C        -0.7293064378       12.8690897531       27.7368971659
  H         5.2659562445       14.2868191660       25.1960339314
  H         4.1903587866       15.5170073210       24.8005389333
  C         5.6256750448       15.0399799790       23.2975112783
  C         2.4167752280        8.0438404586       19.2942309819
  C         2.8134948786       10.3197068820       18.4820584829
  C        -0.8107533684       10.3991431392       27.9241735618
  C        -1.0981564170       11.7848069398       28.5689536088
  S        -0.8952631044       14.3999450725       28.5024524459
  H         6.4600650990       15.6726430901       23.6353390465
  H         5.0732552981       15.6185423138       22.5989973331
  C         6.2513268723       13.8677658746       22.4631462891
  N         2.1659274655        6.9881513088       20.2014035582
  C         2.7329742542        7.4912363069       18.0487768307
  C         3.1097012031        9.7954381299       17.2151635583
  H         3.0244471743       11.3523362007       18.6469181526
  C         0.3592018363        9.7394597271       28.7333021008
  C        -1.9381695819        9.5094825769       27.6810176126
  C        -1.4111288156       12.2366458212       29.8834106541
  C        -1.3714420223       13.5743920748       29.9417765469
  H         7.2479755100       14.2206095671       22.0907760746
  H         6.2877476337       13.0072935166       23.1775693710
  C         5.4171949481       13.4135066195       21.2482964246
  S         2.0034255174        5.5823623044       19.4073581159
  N         2.6049923668        6.1108705981       17.9821185083
  C         3.0333716616        8.3430970602       16.9576878293
  H         3.5453729670       10.5366419415       16.5254925085
  H         0.6064514682        8.7358906935       28.2205858666
  H        -0.0600555986        9.3631720025       29.7205329408
  C         1.6273032234       10.6471193392       29.0007754603
  H        -1.8469988189        8.7437823866       26.8932489657
  H        -1.9598909563        8.9126016766       28.6486740026
  C        -3.2475808104       10.1440774418       27.6490403289
  H        -1.6378779166       11.5224097689       30.5878332785
  C        -1.5741005824       14.3377812510       31.1717672629
  H         4.5456762375       14.0540750774       21.2337514103
  H         5.1285725753       12.3255108433       21.2060562132
  C         5.9551905700       13.7623678225       19.8898660650
  C         3.3371397208        7.7504691919       15.7032691390
  H         1.9759973738       11.0093216942       28.0334348401
  H         1.5344296933       11.4411582888       29.7180139068
  C         2.7746873279        9.8155819909       29.5707273717
  H        -3.1920929455       11.0327225705       26.9813535058
  H        -3.5429006592       10.5164815131       28.6505063324
  C        -4.3595433489        9.1608341463       27.1532267141
  C        -1.5721814410       15.7447275398       31.2704820167
  C        -1.8199914206       13.6568097827       32.4711343334
  H         5.2311123026       13.3589806560       19.1719595751
  H         5.9768888755       14.8232047064       19.8002187365
  C         7.2886019332       13.0819936786       19.4900169506
  H         3.1481443736        6.7384396052       15.5192842448
  C         3.6233487294        8.3162011763       14.4819262683
  H         3.3468441605        9.3893018190       28.7510244162
  H         2.3964955148        8.9376913560       30.1388656415
  C         3.7851111950       10.6493003673       30.3617416756
  H        -4.1794343631        8.7375078175       26.1571703054
  H        -4.2992544756        8.3079413631       27.8543448088
  C        -5.7722815310        9.8415343501       27.0288730100
  N        -1.4918197988       16.6049511862       30.2244810341
  C        -1.8760333589       16.3946283440       32.4329957782
  C        -2.0502341688       14.3957977514       33.6523427353
  H        -1.8144281743       12.5268108500       32.5398051173
  H         8.0645466638       13.5713329219       20.0274989389
  H         7.1805163394       12.0370687723       19.7566344921
  H         7.4536809343       13.1397946454       18.4205113290
  S         4.0577656575        9.9145385973       14.1635239134
  C         3.4167174549        7.4580730133       13.3227781580
  H         3.8474968325       11.6349063111       29.8546897147
  H         3.4104570008       10.8679479066       31.3684399133
  C         5.1799960753       10.1349386483       30.5559858491
  H        -5.8152617055       10.5738792082       27.7534361247
  H        -6.5223765953        9.0877063162       27.2774472719
  C        -6.1334194779       10.3642595090       25.6043974408
  S        -1.5094341084       18.1017003892       30.7105813165
  N        -2.0479276448       17.7624660076       32.2301026804
  C        -2.0928225658       15.8355531017       33.6612116202
  H        -2.1557378770       13.8205876143       34.5470346989
  C         4.1918983256        9.4592639281       12.4757251955
  N         3.9318810853        8.1586408739       12.2709373175
  O         2.8917965654        6.3095030967       13.2393096006
  H         5.7503598621       10.8987608754       31.0247371483
  H         5.5877724926        9.8452590414       29.5454528305
  C         5.3282522528        8.8575477612       31.4113409458
  H        -5.5209865944       11.2510204126       25.4495173284
  H        -5.8203343370        9.6889681872       24.8280940680
  C        -7.6221331860       10.7589965981       25.4193051226
  C        -2.6171372648       16.7065715081       34.7118366905
  S         4.6133705285       10.4296582949       11.1040105812
  C         3.9948098966        7.4686093636       10.9559983167
  H         6.3731791138        8.7792281967       31.5870768271
  H         4.7862702573        8.8850337291       32.3075948671
  C         5.0200274521        7.5381016238       30.6721173540
  H        -7.5846447334       11.2764906090       24.4966980371
  H        -7.9229350279       11.4872508902       26.1923030931
  C        -8.6078000904        9.5695218886       25.2901822018
  H        -2.3259234292       17.7307676595       34.5767839568
  C        -3.1097605198       16.4096585457       36.0041264233
  H         4.6602214680        8.0287874127       10.3682810958
  H         4.3742572650        6.4675105685       11.0648874113
  C         2.6186325064        7.4975864967       10.3542500895
  H         5.2013080727        7.5219216704       29.6113791597
  H         3.8842260132        7.2914232834       30.7462238451
  C         5.9114995822        6.4148254282       31.2408239705
  H        -8.2384215395        8.9200178972       24.5687861201
  H        -8.5770413856        8.9368315977       26.1573569584
  C       -10.0721981748        9.8438151418       24.8381164688
  S        -3.4705264580       14.8515157435       36.5482197484
  C        -3.2821631489       17.5048333667       37.0283256559
  H         2.5700648850        7.7236855216        9.2994979785
  H         2.0388638081        6.5108301535       10.4471533853
  H         1.9697783041        8.1661476972       10.8972946544
  H         5.8297977429        6.3577624286       32.3195766234
  H         6.9111974293        6.6657438202       30.9543394176
  H         5.7975926493        5.4844371643       30.6814256086
  H       -10.4095896478       10.8512335199       25.0589488582
  H       -10.8373490312        9.2542238079       25.3925476262
  H       -10.0858242040        9.7732285875       23.7450907103
  C        -3.9712181589       15.5550643016       38.0998766172
  N        -3.7643517423       16.8984487729       38.1701036280
  O        -3.0804002444       18.6829239322       36.9507374684
  S        -4.6025528476       14.6451253073       39.4924108562
  C        -4.0237349795       17.6375702025       39.4177786601
  H        -4.1833061873       18.6337999443       39.2252064868
  H        -4.8503928007       17.2271419698       39.9346353748
  C        -2.7897804239       17.5956942858       40.3129840525
  H        -2.6706567718       18.5877229243       40.6896760918
  H        -2.9126189956       17.1674640524       41.2108363918
  H        -1.9442244194       17.1606074359       39.8667831249
