352
i=
  H         4.2284621147        2.6077265256       12.3633280752
  C         3.1319878878        2.5782201091       12.2644679285
  H         2.7692938596        3.5936325963       12.5382311982
  C         2.6341077599        2.4095493624       10.8313090742
  C         2.5248442000        1.6793522556       13.3316622180
  C         3.7733499339        2.6638074664        9.8172924647
  H         1.8776148877        3.1709342272       10.6405956912
  H         2.2868981099        1.4052322133       10.7076776331
  H         3.0861907157        0.8380169093       13.6776060755
  H         1.4841961224        1.5098720895       13.1326175691
  H         2.4627752782        2.3058896218       14.2587633598
  C         4.5837392125        1.4324355799        9.4139717628
  H         3.2521602128        3.1541209094        8.9334121212
  H         4.4503883434        3.3692800872       10.2681185608
  C         5.5306371361        1.6152177102        8.2420657841
  H         3.7443727244        0.7359821099        9.1161425821
  H         5.1632581123        1.0141860422       10.2117167722
  C         6.7227278116        2.5473963332        8.4757554222
  H         5.1419933013        2.1440450546        7.3728954246
  H         5.8950704332        0.5983906408        8.0396473704
  C         8.0149695270        1.9652813748        9.0305564222
  H         6.9517173765        2.9597094695        7.5369310107
  H         6.4015056766        3.3501631661        9.1106804319
  C         9.2478635710        2.8820520263        9.2856083067
  H         8.3115665883        1.1577163942        8.3654346488
  H         7.8311177067        1.2982631635        9.8772276585
  C         8.7476371563        4.1985922030        9.8107497673
  C         9.5902820830        3.5468001716        7.9819881836
  C        10.4451786562        2.2182860181       10.0719497335
  C         9.0241898127        5.3268444726        9.0232414208
  C         8.1435541659        4.5442633587       11.0409333115
  C         9.5523411057        4.9284808097        7.8322852304
  C        10.0255652361        2.9327809744        6.7940070088
  H        10.0646027910        2.1015188242       11.0750681439
  H        10.5903587367        1.2195633122        9.7404782563
  C        11.6424068938        3.0992153240       10.1018280873
  S         8.6231233503        6.7878927219        9.8502176303
  C         8.1162196266        5.9168801216       11.2134293888
  H         7.9039378177        3.7582209731       11.7015745079
  C         9.9298436273        5.5760808672        6.6604434787
  H        10.1744620004        1.8132806792        6.7254571852
  C        10.4623311588        3.5158850010        5.6671287044
  H        11.3023032937        4.0644978811       10.5375944472
  H        12.0867044956        3.3335736832        9.1589653584
  C        12.8395535386        2.5075797075       10.9136533052
  C         7.7425556839        6.6476958932       12.4962792363
  C        10.3161736227        4.8702667271        5.5069703517
  H        10.0914299998        6.6570877936        6.6707360485
  C        10.8653046644        3.0970122771        4.4585543711
  H        13.7708509579        2.9576717191       10.5533334750
  H        12.9460601476        1.4941662472       10.7204039646
  C        12.7054068080        2.9219096761       12.4067686700
  C         7.8312057277        8.0438583588       12.7455501081
  C         7.1216719118        5.8449690855       13.6184141771
  C        10.7416902292        5.5320818775        4.2308387439
  C        11.0544755128        4.1666494147        3.6147328721
  S        10.9794569364        1.5381124310        3.8190580696
  H        13.6998676400        2.8968483297       12.7674206933
  H        12.4601213300        3.9544874538       12.5804611534
  C        11.8988309555        1.9857208166       13.3326025620
  N         8.2731264599        8.9901363986       11.8192780146
  C         7.3980548635        8.6171601113       13.9337793636
  C         6.8079462649        6.4201580123       14.8390483066
  H         7.0749541245        4.7958163743       13.5547696233
  C        12.0403999195        6.4025504797        4.3327518059
  C         9.5976627990        6.1969040868        3.5310888916
  C        11.4217711379        3.7119759034        2.3892491493
  C        11.3656478220        2.3016581418        2.2884455494
  H        12.2852708097        0.9701196452       13.1887811030
  H        10.9620686650        2.0359984475       12.8838371528
  C        11.8404747218        2.4723269492       14.7920555793
  S         8.0019620734       10.4871583427       12.4084943013
  N         7.3458355944       10.0107655573       13.8131626255
  C         6.9185103354        7.8810864950       15.0154988340
  H         6.4721669341        5.7579245129       15.6806378193
  H        11.7970118689        7.2205495024        5.0288901176
  H        12.2236159564        6.8616201104        3.4088007382
  C        13.3450538340        5.6093056574        4.6841514898
  H         9.3279976517        7.0663331882        4.1184152622
  H         9.8170573249        6.5384668756        2.4539905647
  C         8.3559638851        5.2616262701        3.3814197542
  H        11.5635893716        4.3959839057        1.6008917721
  C        11.6847357849        1.4832799392        1.0905795603
  H        11.7265456036        3.5378297342       14.9053657377
  H        10.9514197494        2.1089296999       15.3487115456
  C        13.0994300533        2.2097415346       15.4795402203
  C         6.6601261388        8.5721666631       16.2403854556
  H        13.0324597311        5.0160277772        5.5532437755
  H        13.5756095605        4.8707759968        3.8862282560
  C        14.6286945003        6.3842942463        4.9150355169
  H         7.9804528719        4.9825991871        4.3828247902
  H         8.6689244376        4.3385452739        2.8667844709
  C         7.3136334504        5.9120232145        2.4289191177
  C        11.6873928843        0.0476249382        0.9824844774
  C        11.8889602636        2.1787396041       -0.2485079637
  H        14.0163055878        2.7334859400       15.1688109637
  H        13.4895991425        1.1763394838       15.3099645348
  C        12.9560024453        2.5293718983       16.9547125001
  H         6.6778448754        9.6688175905       16.2129695789
  C         6.4729469972        8.2279827156       17.5734555939
  H        14.4513871686        7.3060997772        5.5394448482
  H        14.9917122216        6.7760523950        3.9283255314
  C        15.7406956126        5.6021781569        5.5953676663
  H         7.0181666057        6.9046383503        2.8124792216
  H         7.8513417233        6.1857047239        1.4330609736
  C         6.1331269472        5.1047388844        2.1612901210
  N        11.5283189395       -0.8530737285        2.0499396341
  C        12.1038026132       -0.5521410724       -0.2093544228
  C        12.1728138034        1.5741514820       -1.4371592006
  H        11.7073535517        3.2346717051       -0.2724056846
  H        12.6201055106        1.6050928747       17.5467312792
  H        12.2800487917        3.3451816231       17.0758690524
  H        13.9470222624        2.6588925393       17.3650083396
  S         6.3739375069        6.6385841299       18.3067706301
  C         6.3397178491        9.4212729370       18.5117096381
  H        15.2532315310        4.9406845776        6.2931357879
  H        16.2143724828        4.9965867085        4.7328856623
  C        16.8368126253        6.3841666533        6.1971439665
  H         6.0818480870        4.3875786823        2.9779108458
  H         6.2259196963        4.5820081630        1.2771285417
  C         4.8604933305        5.8493390277        2.0134583253
  S        11.7271129691       -2.3363554109        1.4625598933
  N        12.1241664603       -1.9368946043       -0.0963757943
  C        12.4055690170        0.0928716125       -1.4214323270
  H        12.4207628319        2.1960789459       -2.2760475441
  C         6.0303658803        7.6251353659       19.7814236446
  N         6.0535828365        8.9678576319       19.7144412121
  O         6.5191873631       10.6082938383       18.2632702026
  H        17.1157329785        7.1929479830        5.5136191048
  H        16.3908690838        6.7690661704        7.0830882038
  C        17.9459341350        5.3939992041        6.5489732037
  H         4.0450091562        5.1941651908        1.8516695050
  H         4.5067274454        6.3501839504        2.9287584453
  C         4.9857423846        6.8212195444        0.7778599304
  C        12.8864789051       -0.5690824930       -2.5931363799
  S         5.7345199512        6.9381161238       21.4055771323
  C         5.8567700293        9.9378396145       20.8915904993
  H        17.4072489557        4.5324210810        6.9664043502
  H        18.4900827308        5.1544764916        5.6704535601
  C        18.9163469603        5.9626991431        7.5403632515
  H         4.8666130248        6.1955433577       -0.1193585545
  H         5.8587309778        7.3814981561        0.7417612325
  C         3.8328240441        7.8033972737        0.7995873520
  H        12.8102074031       -1.6710517726       -2.4763422903
  C        13.2605927231       -0.2219057392       -3.8682107629
  H         5.0633769416        9.7430421867       21.6150960089
  H         5.7788302241       10.9269359779       20.3885438385
  C         7.0750319851        9.9278005078       21.8190241670
  H        18.8800871900        5.2820348928        8.3721596325
  H        18.5310389814        6.8802917726        8.0114129940
  C        20.2519395020        6.1701036893        6.9279846645
  H         3.5433580533        8.1361721819       -0.1992245416
  H         2.9496611773        7.3542106720        1.2742256874
  C         4.0885667902        9.0337993644        1.7078190201
  S        13.7037294554        1.4098451551       -4.4420988340
  C        13.3344732512       -1.2811353022       -4.8883605028
  H         7.9570428719        9.3026821252       21.5588839672
  H         6.6359189483        9.4346583765       22.7101346353
  H         7.3968144960       10.9589523004       22.1270162769
  H        20.1725617920        7.0115634900        6.2369436340
  H        21.0100591393        6.3384647957        7.6626681984
  H        20.4409213849        5.1754740039        6.5097884784
  H         3.1840655449        9.6833923464        1.7368562331
  H         4.4669163708        8.7790323486        2.7076919384
  H         4.8304168521        9.6040474695        1.2236871479
  C        14.0256606261        0.6358748683       -6.0017902376
  N        13.8867030948       -0.7332145383       -6.0092687895
  O        13.0655717595       -2.4618591477       -4.6289290820
  S        14.9246718650        1.2455560991       -7.3456759115
  C        14.1059320488       -1.4857178820       -7.3052199668
  H        14.2285127727       -2.5928669091       -7.1716876356
  H        14.9828884996       -1.3108822973       -7.9202802874
  C        12.9428467820       -1.3280330242       -8.2557224576
  H        12.0868490077       -1.5365742149       -7.6530853646
  H        12.9032981622       -2.0841142227       -9.0260422253
  H        12.8746101414       -0.4138734182       -8.7511794047
  H        -3.8445531590       14.5264797735       16.1989159685
  C        -3.3054212095       13.5390429558       16.0743181220
  H        -4.0617014760       12.7802035754       16.1945988027
  C        -2.2854637180       13.3845057084       17.1892942814
  C        -2.9081660707       13.2918085336       14.6483845267
  C        -2.8336591495       13.5922698202       18.5753910535
  H        -1.6692990840       12.5063083494       17.0225646721
  H        -1.5715074774       14.1077995859       17.1325657196
  H        -2.3941539242       14.1875093546       14.2182220995
  H        -2.2483220332       12.4620199987       14.5721329093
  H        -3.7534620132       13.1313791288       13.9832010065
  C        -1.8305709262       13.2165127277       19.6387097347
  H        -3.7104828711       12.8722514572       18.6230661084
  H        -3.2267017459       14.5890631857       18.6657102159
  C        -2.3537129865       13.5018892637       21.0299238112
  H        -1.6998665276       12.0808080494       19.4940361188
  H        -0.8605914665       13.6549742823       19.4839697216
  C        -1.4669388551       12.8385641654       22.0604338396
  H        -3.3369661430       13.0758537323       21.1449617519
  H        -2.5338125607       14.5606559770       21.1996935170
  C        -0.2404896195       13.8105357907       22.2316762163
  H        -2.0698789825       12.8104995195       22.9789902431
  H        -1.1737219884       11.8517066208       21.7180100600
  C         0.9184253730       13.2060774354       23.1036618346
  H         0.2121697409       14.2773632499       21.3588585227
  H        -0.5844646258       14.6254497435       22.8725216018
  C         1.3399376084       11.8772649353       22.4804560350
  C         0.4638501543       12.5099988085       24.3975961314
  C         2.1043466997       14.1523465453       23.3418018623
  C         1.1889095601       10.7869716590       23.3653633937
  C         1.9034330847       11.5145810799       21.2535564573
  C         0.6086928785       11.1681184425       24.5194508686
  C        -0.0713273901       13.1059936814       25.5359852224
  H         2.3860340964       14.6791689142       22.3968951951
  H         1.7488846681       15.0102309487       23.9340726556
  C         3.4433316356       13.4149695776       23.7710070765
  S         1.6979390498        9.3019771944       22.7048655066
  C         2.1161745978       10.1570222799       21.1992792611
  H         2.0722301613       12.3116980279       20.5532098745
  C         0.1755222278       10.4964248917       25.5927427160
  H        -0.1187056966       14.2049198992       25.6078176334
  C        -0.4148473295       12.4582128635       26.6225715248
  H         3.9386315183       12.7842405437       23.0145393316
  H         3.2365035306       12.7080835610       24.5738449367
  C         4.4742336669       14.4012254547       24.4743373385
  C         2.5351632452        9.4156348625       20.0148918299
  C        -0.3535931383       11.1141665514       26.7216301820
  H         0.1029463454        9.4007255413       25.6483280219
  C        -0.7871170546       12.8920846072       27.9032479000
  H         5.2728207712       13.8326467672       24.9619721725
  H         4.0219686451       15.0998609848       25.1559911214
  C         5.1795344468       15.2569561701       23.4058234251
  C         2.5093990623        8.0415148958       19.8163190920
  C         2.7988737550       10.2248063071       18.7931942737
  C        -0.7539549203       10.4015667617       28.0331701814
  C        -0.9544671090       11.7948840908       28.6622069846
  S        -1.0857257583       14.3757169038       28.6210780959
  H         5.5495798688       16.1749003716       23.8268833071
  H         4.5104357867       15.4883002629       22.5905729831
  C         6.3597565556       14.6321723444       22.6000545192
  N         2.2449358992        7.1441069899       20.8367889153
  C         2.7150668058        7.4469945166       18.5405016347
  C         3.2398911585        9.6342372379       17.5821001848
  H         2.8488826420       11.2692751592       18.8090567304
  C         0.3630427276        9.4997020950       28.6988124460
  C        -2.0995940996        9.6024252907       27.6304502790
  C        -1.3570588801       12.1005412369       29.9816268912
  C        -1.4369044610       13.4792196527       30.1158681743
  H         7.1866273470       15.2942011285       22.7098937065
  H         6.7016920449       13.7523563141       23.0486567659
  C         5.9821342586       14.3787078022       21.1413295497
  S         2.3418898372        5.6638031338       20.1258684502
  N         2.7053952611        6.0696300625       18.5972651400
  C         3.1344919472        8.1436614686       17.3659820723
  H         3.5614119904       10.2378658817       16.7661341985
  H         0.7475985798        8.8523986638       27.9044392623
  H         0.0128949098        8.8282393802       29.4844293408
  C         1.4907848876       10.4092248812       29.2641426065
  H        -1.9042706787        8.9197462490       26.7935894217
  H        -2.4254942429        9.0472607137       28.4761586777
  C        -3.3777857151       10.4846014516       27.3364418574
  H        -1.5551499984       11.2517946568       30.6772624289
  C        -1.7537346608       14.1995639323       31.4012130389
  H         5.7912686979       15.3631340808       20.6099282015
  H         5.1084485771       13.7758030365       21.0933867860
  C         7.1549611405       13.7865568802       20.3378183333
  C         3.3230392896        7.5304619098       16.1123767667
  H         1.8503258076       11.0365044135       28.4933848745
  H         1.2431146714       11.0180751905       30.0721282223
  C         2.6696635543        9.5309498834       29.6941784149
  H        -3.2845422975       10.8152096663       26.3452865846
  H        -3.4335235869       11.3263593693       28.0350285585
  C        -4.6830364045        9.7361370797       27.3841206086
  C        -1.7563547418       15.5946368779       31.5394174875
  C        -1.7808418022       13.4703121576       32.7018558772
  H         7.9377199345       14.4315662600       20.6654180993
  H         7.4432301662       12.7430762859       20.6866768852
  C         7.1640478524       13.8992904381       18.8187815567
  H         3.3598576311        6.5343142970       16.2432176360
  C         3.6851652439        7.9605353384       14.8592979169
  H         3.1837828192        9.0515368593       28.8111748279
  H         2.4194478104        8.5883579700       30.2050491766
  C         3.7259026045       10.3913175526       30.3940850791
  H        -4.6458932519        8.8485304433       26.6715476979
  H        -4.8739569496        9.3713428090       28.3923835682
  C        -5.7465732175       10.7623407716       26.9562029390
  N        -1.5297987914       16.5611890048       30.5133341899
  C        -1.9281188611       16.2680635672       32.7699576281
  C        -2.0921946583       14.1186457509       33.9046125045
  H        -1.6668337656       12.4314742070       32.7505269811
  H         7.5319067556       12.9439164587       18.4601785428
  H         6.1563120135       14.1760235417       18.3845349247
  H         7.8228109990       14.7416742748       18.4531533180
  S         3.9658454126        9.5585094402       14.3895992310
  C         3.6966461012        6.9490051823       13.7577089139
  H         3.8600624726       11.2675551741       29.8009732589
  H         3.5248139703       10.6670874185       31.4242393817
  C         5.1124689583        9.7886912361       30.4534508929
  H        -5.5358849870       11.7632152611       27.3769925896
  H        -6.6443646692       10.5164183550       27.5755964506
  C        -6.0581159568       10.7598951570       25.4779353777
  S        -1.5302207452       18.0411447618       31.1539518821
  N        -2.0554820210       17.6475926803       32.6206525273
  C        -2.2348447708       15.6165253823       33.9269790766
  H        -2.3057618011       13.4543047043       34.7341522829
  C         4.1598353512        8.8688670887       12.6993199114
  N         4.1406259835        7.5396052107       12.6314317089
  O         3.5848863815        5.7975738140       13.9585745143
  H         5.8347175910       10.6568394249       30.5603119778
  H         5.3440635279        9.3242515038       29.4839015183
  C         5.3086401872        8.7833892179       31.5457269850
  H        -5.5145219476       11.5838270802       25.1132204472
  H        -5.7268025452        9.9082661657       24.8895113328
  C        -7.5663388292       11.0029796023       25.2483394579
  C        -2.6233680166       16.3339586975       35.0971199397
  S         4.7792170590        9.6956557442       11.2034795604
  C         4.3177637906        6.7836781780       11.3667446327
  H         5.9492059376        9.1693910381       32.3563464658
  H         4.3569051484        8.6414611717       31.9409217080
  C         5.9823798973        7.4687098876       31.1455144236
  H        -7.7751445917       11.4481378496       24.2490351025
  H        -7.8940386979       11.7543621031       26.0206626786
  C        -8.3824102329        9.7826854960       25.4628533034
  H        -2.6228521264       17.3954693149       35.0253021702
  C        -3.2351744978       15.9495766916       36.2577998570
  H         5.1249878579        7.1640275483       10.7311980058
  H         4.5697825303        5.8263051540       11.6186132050
  C         2.9451100135        6.8541409589       10.6301635622
  H         6.9501985663        7.6580023280       30.6288788741
  H         5.3937736762        6.9784716545       30.3744109363
  C         6.1897451570        6.5526418930       32.3333906344
  H        -8.3086771127        9.2628677447       24.4889791513
  H        -7.9432476715        9.2315020824       26.2700816835
  C        -9.8706121802       10.2225840193       25.7303130920
  S        -3.3709509478       14.3517699225       36.9077716010
  C        -3.5838491985       16.9610200927       37.2915484045
  H         2.2931187206        6.0605493963       11.0712246347
  H         2.5507002791        7.8240759806       10.6729068034
  H         3.1453524956        6.6900044646        9.5612267653
  H         6.5172568450        5.5270362110       32.0230156748
  H         5.3305839142        6.5604601285       32.9421788303
  H         6.8617377640        7.0135347668       32.9307836899
  H       -10.1703347570       10.5484115618       24.6958991327
  H       -10.1649022893       10.7693083633       26.5993438955
  H       -10.5320303643        9.3968422638       25.9984198829
  C        -3.9372479804       14.9877738787       38.4027445219
  N        -3.9558704095       16.3397047789       38.4076345995
  O        -3.3583539482       18.1975060083       37.2152732215
  S        -4.4139443026       14.1128506040       39.8326824367
  C        -4.1938513124       17.0898235468       39.6090922083
  H        -4.3412802340       18.1225736965       39.4042256506
  H        -5.1747744401       16.8125806261       40.0424287892
  C        -3.0393967795       17.0217955625       40.6772590132
  H        -2.8603328524       16.0084711387       41.0663668071
  H        -2.0830023939       17.1926603480       40.2408219404
  H        -3.0319600767       17.7674422519       41.4989994102
