352
i=
  H         2.0083086006        1.4105453472       12.6017483436
  C         2.9872804692        1.7382263717       12.2952400975
  H         3.5607390204        0.8611924976       11.8752783704
  C         2.8622920976        2.8085482006       11.2613348080
  C         3.7265904685        2.2514432912       13.4785276140
  C         4.1476295358        3.0115943487       10.3828402128
  H         2.8059362596        3.7377127923       11.7534568516
  H         1.8779817294        2.7856772444       10.7725603901
  H         4.8133796224        2.4237892781       13.3077213769
  H         3.6055442368        1.3928363087       14.1727735625
  H         3.3346609508        3.0968394031       14.0882751748
  C         4.5353766193        1.7303592877        9.6271708573
  H         3.9674405929        3.7582906830        9.5984719382
  H         5.0023482265        3.3209392428       10.9421043582
  C         5.0281873801        2.0848907969        8.2481725555
  H         3.6586929621        1.0544901865        9.5296197504
  H         5.2794798898        1.1703516056       10.1995685684
  C         6.4073361814        2.8274614684        8.3131751216
  H         4.2372762590        2.6330071543        7.6785319540
  H         5.2076793704        1.1941670422        7.5815405651
  C         7.6132066443        2.1005867728        8.9040584568
  H         6.7547932008        3.2371562135        7.3926681267
  H         6.1847078938        3.6765774271        8.9631264591
  C         8.9234272296        2.9129752194        9.2039129121
  H         7.8388794868        1.1667811356        8.3187464482
  H         7.3654091259        1.6962957222        9.9395272469
  C         8.6239241452        4.2560801785        9.8614196796
  C         9.4238834599        3.6324239835        8.0067188358
  C         9.9576627571        2.0132358716       10.0059338517
  C         8.8559056320        5.3821988034        9.0938800513
  C         8.0902022400        4.6183491570       11.0957164918
  C         9.3749024550        5.0057239125        7.8840523911
  C         9.9000154001        3.0768467823        6.7848801100
  H         9.3170249952        1.5472945173       10.7900057683
  H        10.2898789263        1.2067824216        9.3767104777
  C        10.9524198605        2.9193514685       10.7111909836
  S         8.3075979672        6.8154616284        9.8358882617
  C         7.9676514907        5.9694954996       11.2658803510
  H         7.8144964650        3.8206834976       11.8253825826
  C         9.8452605535        5.6412498746        6.7709416786
  H         9.9596395481        2.0191348075        6.7235630772
  C        10.3002505822        3.7044568798        5.6845676996
  H        10.4606641138        3.3447665662       11.6069070977
  H        11.4668139471        3.6482099045       10.0456497528
  C        12.2169794208        2.2360016666       11.1308170529
  C         7.6420267757        6.5785497452       12.5787700345
  C        10.3891798789        5.0253043567        5.6270169355
  H         9.8415667537        6.6837232368        6.8108733789
  C        10.7395217551        3.2596733633        4.4676829637
  H        13.0510757279        2.8910510848       11.1689799217
  H        12.4981986440        1.5076867393       10.4636145599
  C        11.9774592955        1.5690978864       12.4967405009
  C         7.5696338513        7.9785524427       12.8745787267
  C         7.4021602329        5.6097336802       13.7057770831
  C        11.0186434389        5.7338255507        4.4763212641
  C        11.1589501469        4.3212131218        3.7227016074
  S        10.9129257362        1.7011181243        3.6662535465
  H        10.9334803201        1.2365057911       12.6012762576
  H        12.5780656186        0.6591175790       12.5570639369
  C        12.4141838034        2.5015580595       13.6279381244
  N         7.8817486540        8.9695483761       12.0210861725
  C         7.3425764547        8.4763210820       14.1316476456
  C         7.1290913961        6.2010003372       14.9859652999
  H         7.3953061664        4.5309249066       13.5555858507
  C        12.3475510690        6.4346207001        4.8590152668
  C         9.9593935425        6.5714327902        3.6487622787
  C        11.5143195168        3.8818275469        2.4668627498
  C        11.4640661424        2.5363982237        2.2540280788
  H        11.8372224295        3.4342132248       13.5617595175
  H        13.4339232318        2.7490899848       13.4929150326
  C        12.0630840483        2.0274519871       15.0756480416
  S         7.7546343210       10.4358089616       12.7530819910
  N         7.4193743828        9.8478237069       14.2271424517
  C         7.0145313950        7.6868350642       15.2317869328
  H         7.0624674790        5.5186315012       15.8600142989
  H        12.2060502068        6.9229213671        5.8774918655
  H        12.5825116113        7.1805288942        4.0599460306
  C        13.5782112925        5.5075510185        4.9818797668
  H         9.8270840954        7.4728807268        4.2059599931
  H        10.3473306102        6.9444056998        2.6460581245
  C         8.5684389260        5.8071969671        3.5425268794
  H        11.7587265864        4.5797538752        1.7373094388
  C        11.7829168099        1.7470225380        0.9731124790
  H        10.9704295723        2.1671431081       15.2281382854
  H        12.1990910995        0.9573992087       15.0971857252
  C        12.9622223852        2.7743832574       16.1091783164
  C         6.9550539512        8.4280468489       16.4516964348
  H        13.5228697394        4.9016710543        5.9243967982
  H        13.6845716999        4.7442702547        4.1839777365
  C        14.8481985124        6.2873590860        5.1865401050
  H         7.9226732755        6.2020057947        4.2791719556
  H         8.7174625856        4.7425649012        3.6612508098
  C         7.9842258892        5.9487936489        2.1522316673
  C        11.8496033580        0.3515169186        0.7480161835
  C        12.0747030273        2.5197268545       -0.2155119751
  H        12.4580012046        3.6811019574       16.3699946205
  H        14.0884127166        2.8358827102       15.8659131157
  C        13.0116353925        2.0406252458       17.4987466243
  H         7.1116269903        9.4565048155       16.3861057867
  C         6.7937655554        8.0157872992       17.7771320391
  H        14.6608272993        7.1340315988        5.8996464296
  H        15.2374318036        6.8319270945        4.2787558350
  C        15.9988022439        5.3928808522        5.6289859413
  H         8.1385777515        6.9888725474        1.7232661497
  H         8.5765504124        5.3125454519        1.4299287887
  C         6.5317858334        5.4678949908        1.9655747642
  N        11.6607100627       -0.6158778971        1.7604585305
  C        12.0937991244       -0.2714385430       -0.4628825536
  C        12.2887479660        1.9056075773       -1.4332344749
  H        11.8865620709        3.6047900751       -0.1921099856
  H        13.0383876256        2.8063538181       18.2787773378
  H        13.8908339373        1.4562750185       17.5429379796
  H        12.0612809463        1.4728534898       17.6656860171
  S         6.5864073213        6.3496077125       18.2798404317
  C         6.6104722896        9.0419170536       18.7924731734
  H        15.4627016056        4.7249256688        6.3661489322
  H        16.3879135611        4.8566309502        4.8036215969
  C        17.0805471202        6.2081912370        6.3230081200
  H         6.3299613054        4.7917891698        2.8628078437
  H         6.5298101516        4.7341885212        1.1990787432
  C         5.3642392026        6.4790294643        1.8478115457
  S        11.7393146426       -2.1076740008        1.0837323816
  N        12.0798660317       -1.6970218221       -0.4250476039
  C        12.2680802123        0.4693347844       -1.6287554705
  H        12.3975176982        2.5747996867       -2.3087419673
  C         6.1801984575        7.0538159895       19.7844860327
  N         6.2319844403        8.3945195727       19.8622090620
  O         6.6816788761       10.2498172155       18.5527446312
  H        17.6200957824        6.9122503842        5.7266965783
  H        16.5605205095        6.8607288997        7.0594921073
  C        18.0295383838        5.2930699742        7.0696105721
  H         4.5662717772        5.8526061815        1.3699153262
  H         4.9611545605        6.7716457068        2.8228842462
  C         5.5460822044        7.6374370967        0.8706747583
  C        12.5195986325       -0.2445917304       -2.8588585320
  S         5.5179061251        6.2672129913       21.1498642814
  C         6.0877047613        9.1192849661       21.1300950239
  H        17.4751448104        5.0767353206        7.9597140458
  H        18.1146413868        4.3640868310        6.5588128242
  C        19.4286576956        5.8790253138        7.2468998198
  H         5.9189072700        7.2174029870       -0.0729447723
  H         6.2216132058        8.3422393285        1.3290566900
  C         4.2044393214        8.3594586175        0.7897453715
  H        12.2769549167       -1.3304567425       -2.8048411632
  C        13.1831872490        0.0684997342       -4.0466213002
  H         5.2328336107        8.7531945980       21.8250489758
  H         5.8933104040       10.1788334327       20.9100705590
  C         7.4205393014        8.9529308091       21.8601756069
  H        20.0239010555        5.4137208460        7.9737468787
  H        19.3042197509        6.9436582739        7.6546958898
  C        20.1152553981        6.1164233941        5.9317845910
  H         3.7291663293        7.7865149129       -0.0914200598
  H         3.5105489076        8.2254230140        1.6203407079
  C         4.3664277891        9.8248875226        0.5509126509
  S        13.9111205032        1.6066990089       -4.3945272151
  C        13.2603195281       -0.9909494658       -5.0430067694
  H         7.7466200176       10.0355141331       22.2378246653
  H         8.2643268086        8.5468484143       21.2024389400
  H         7.3067448758        8.2249688347       22.6961417677
  H        21.2048302226        5.7323185426        5.9476752222
  H        19.7450094220        5.6020378959        5.0673452667
  H        20.2958282537        7.2105571677        5.7654300654
  H         4.2873551685        9.9087840800       -0.5811568503
  H         3.5734146270       10.4240917138        0.9418246594
  H         5.3135678903       10.2370172520        0.9592181448
  C        14.4301988238        0.7755215039       -5.8357170739
  N        14.0561655964       -0.5327447469       -5.9625400188
  O        12.6600320729       -2.0385700745       -4.9381115472
  S        15.3069775446        1.4566925759       -7.2509411170
  C        14.4004193783       -1.3135298486       -7.2142994509
  H        14.4477264684       -2.4513467437       -7.0142608511
  H        15.3773844176       -1.1969425514       -7.6730919271
  C        13.2780091326       -1.1479225664       -8.2372163073
  H        12.3630787043       -1.7512860429       -8.0408693847
  H        13.5291050741       -1.3949892219       -9.2156708162
  H        12.9408562952       -0.1004999961       -8.1289197873
  H        -2.7955367701       14.6017291380       16.0951761500
  C        -2.3770061399       13.6302518934       16.2322328186
  H        -3.1586118559       12.9617264004       16.6830013498
  C        -1.1632022241       13.6823985078       17.0852984097
  C        -2.0779156861       13.1968388190       14.7750165846
  C        -1.6509932273       14.1444435496       18.4776687841
  H        -0.6965006668       12.7595646682       17.1137528978
  H        -0.3743127282       14.2718841625       16.6853340582
  H        -1.9828745353       14.0183290761       14.0584140283
  H        -1.1570662679       12.6517653592       14.6772954156
  H        -2.8698620951       12.5311907223       14.3434453320
  C        -1.5359412351       12.9979774997       19.5573449037
  H        -2.5624459568       14.8011640126       18.4734258747
  H        -0.8670237491       14.7961474519       18.7905336124
  C        -1.9094226227       13.5336900161       20.9160826027
  H        -2.3237001657       12.3026833253       19.1985515938
  H        -0.5958884791       12.4298308439       19.6067950850
  C        -1.0815868940       12.8142215886       22.0676894737
  H        -2.9637010507       13.3720236271       21.0943801569
  H        -1.7869967108       14.6117934352       21.0251519227
  C         0.1632260453       13.6799158999       22.2582474888
  H        -1.6755459127       12.8200537602       22.9655285556
  H        -0.8733150502       11.7900929405       22.0100638872
  C         1.3051526232       13.0331106463       23.0163060509
  H         0.4761017441       13.8972205025       21.2267530423
  H         0.0298755737       14.6790842344       22.5765293008
  C         1.6795685666       11.6902366833       22.4085436035
  C         0.9591425899       12.3033503323       24.2724893771
  C         2.5105603166       13.9526091338       23.1372261437
  C         1.5344852405       10.5929268061       23.1833997172
  C         2.0962788968       11.2563145799       21.1256312068
  C         1.0692365696       10.9758639743       24.4511181168
  C         0.4427264720       12.8735957676       25.4927605386
  H         2.8524521337       14.1744954278       22.1165675332
  H         2.1553258272       14.7659514466       23.6891352648
  C         3.7229861794       13.2661572791       23.7325669340
  S         2.0306878377        9.1156032404       22.4598123430
  C         2.3575468506        9.9703046786       21.0076995149
  H         2.2561693741       12.0099528937       20.3650052124
  C         0.7028672503       10.3290590118       25.5923362906
  H         0.1256838861       13.8885467166       25.5773951980
  C         0.1704365671       12.2556462413       26.6976057365
  H         4.1135185600       12.4919017514       23.0382117302
  H         3.4687124858       12.7769532744       24.6880980405
  C         4.9137939899       14.2355734677       23.9104111355
  C         2.7542251470        9.3826316491       19.6592976863
  C         0.2833250431       10.9009128034       26.8253665241
  H         0.8164031142        9.2601178727       25.5235206220
  C        -0.2240429836       12.6632157356       27.9156192368
  H         5.6790032766       13.7503998652       24.5255615190
  H         4.6950150798       15.1662623767       24.4846409920
  C         5.5673830370       14.7915481609       22.6423880086
  C         2.7743051583        7.9762283458       19.3679501280
  C         3.1843601840       10.2207042075       18.5337915083
  C        -0.1576254466       10.1867629821       27.9964213037
  C        -0.3872098491       11.5269451742       28.7391179016
  S        -0.6287759055       14.1775101370       28.6471080225
  H         6.1464454093       15.6989469297       22.9432871126
  H         4.8019514935       15.1513705250       21.9106611869
  C         6.7125089334       14.0036267885       21.8759824460
  N         2.3116590260        7.0377594098       20.2733159935
  C         3.1081508684        7.4170453813       18.1253551464
  C         3.4925012714        9.6885087188       17.2796418721
  H         3.4078131013       11.2753358456       18.7074325667
  C         0.9599328527        9.4074265034       28.7614207077
  C        -1.4965069281        9.3786272970       27.7822452873
  C        -0.9596692724       11.9616818068       29.9663118667
  C        -1.0789361510       13.3586902069       30.0900364300
  H         7.6183544662       14.6729765787       21.8481138324
  H         6.9870368193       13.1038924896       22.5329167581
  C         6.4189006694       13.5360635295       20.4191888442
  S         2.3022385613        5.5933985938       19.5474973597
  N         2.8066045702        6.0064644832       18.0820003845
  C         3.4117647942        8.2113237741       16.9892553503
  H         3.5621295786       10.4228913420       16.4477127907
  H         1.2053301199        8.4436979361       28.2034684994
  H         0.4039288328        9.0909120670       29.6753554941
  C         2.2267497445       10.2523443222       29.2220329241
  H        -1.2634683721        8.6253590034       27.0906768497
  H        -1.8004069655        8.7929181549       28.6655525502
  C        -2.6726889001       10.2623879633       27.1396766263
  H        -1.2104809352       11.2620670331       30.7161005231
  C        -1.3553691688       14.1163972541       31.3232665656
  H         5.9243366211       14.4121212189       19.9622726204
  H         5.7856804917       12.7406907861       20.3609058029
  C         7.6343174145       13.2222247085       19.5275366318
  C         3.5493897418        7.5998538263       15.7189467135
  H         2.6835959978       10.5693008841       28.2925719695
  H         1.9582222195       11.1065654088       29.8356448866
  C         3.1547780045        9.3974169772       30.1385728023
  H        -2.2774608308       10.7662620153       26.2286639718
  H        -3.0213888943       10.9795826795       27.8158548506
  C        -3.9062950053        9.3993690598       26.8228243819
  C        -1.4399107912       15.5113315140       31.4566348275
  C        -1.5755834598       13.3614900814       32.5565623334
  H         8.5208609475       13.6296000385       20.0456811697
  H         7.8262069936       12.2234267789       19.4417673577
  C         7.5177186927       13.8787835747       18.1418511834
  H         3.3209370355        6.5845635849       15.7435426228
  C         3.8940564609        8.0508225859       14.4756676908
  H         3.1916383361        8.3531500532       29.8514604555
  H         2.7832845532        9.5158136481       31.1603726571
  C         4.4959865599        9.9905052102       30.2213237005
  H        -3.7428099177        8.7135044113       25.9840588742
  H        -4.0620968584        8.8519387604       27.7496132652
  C        -5.0098148375       10.3358903661       26.5500589038
  N        -1.2242974720       16.4670238484       30.4604010657
  C        -1.7292808563       16.0996712934       32.6730500453
  C        -1.8721948629       13.9304855114       33.7602434383
  H        -1.5557798196       12.2947489196       32.5808319654
  H         7.5489575987       14.9899885760       18.2293381780
  H         8.3631194380       13.6056949582       17.5488352412
  H         6.5721714098       13.5351137454       17.6987051967
  S         4.0307078941        9.6633371760       13.8685974086
  C         3.9141872766        7.0125478373       13.3844339256
  H         4.6201070525       10.8036495916       29.4584129894
  H         4.8006775249       10.3970734091       31.1981253604
  C         5.6000706026        8.9318108910       29.8566560129
  H        -4.6717573442       11.1689919453       25.8638955042
  H        -5.2810392175       10.8672493328       27.4627206886
  C        -6.2294518501        9.7156312963       25.9074827925
  S        -1.2963641545       17.9246917820       31.1443471539
  N        -1.8583948723       17.4387517940       32.6243705610
  C        -1.9870659309       15.4389932417       33.8496840525
  H        -1.9141273643       13.3314584148       34.5741870614
  C         4.3001700552        9.0083838206       12.2972553405
  N         4.2246186996        7.6210414758       12.1911964539
  O         3.9378935770        5.8279786475       13.6136805003
  H         6.4935704645        9.3570887335       29.4478128464
  H         5.1933677925        8.2101750142       29.1597584046
  C         6.0612754171        8.0476903918       31.0514108379
  H        -5.8500706386        9.1507068457       25.0983769323
  H        -6.8678059934        9.0268786341       26.5443928480
  C        -7.0428361936       10.8809414104       25.3389146337
  C        -2.3649472699       16.1535908145       35.0365582256
  S         4.7993216230        9.9106462361       10.8885628842
  C         4.3012010490        6.8977572081       10.8756079405
  H         7.0244425081        8.5073115052       31.4200657355
  H         5.2630800064        8.1077889687       31.7866814316
  C         6.4097632919        6.6007248194       30.7405102208
  H        -6.5330342335       11.3459528350       24.4796333837
  H        -7.1807843092       11.6451776167       26.1953281234
  C        -8.3919866238       10.4852208915       24.7717519482
  H        -2.2291241249       17.2550033215       34.9663956058
  C        -2.8920964424       15.7044064018       36.2413996012
  H         5.0917718536        7.3424924637       10.2677948025
  H         4.6351122137        5.8596924688       10.9983079617
  C         2.9694537171        6.9106855188       10.1439769097
  H         7.1338152748        6.6631657728       29.9505461327
  H         5.6221727322        6.1512682043       30.1361009771
  C         6.8242519446        5.8067256201       31.9717557679
  H        -8.6287834298       11.2615603188       24.1995547941
  H        -8.2826092408        9.5774969049       24.1064765442
  C        -9.4677763762       10.3019564342       25.7911738076
  S        -3.4274826113       14.1140770640       36.6072365893
  C        -3.1533383602       16.7556898872       37.3052675364
  H         2.8938310855        7.8771486771        9.6510263321
  H         2.9757860852        6.1615873341        9.4192684118
  H         2.1114814525        6.8335430284       10.7769597342
  H         6.8625528977        4.7983758040       31.6161390462
  H         6.1269962142        5.8288011361       32.8197410388
  H         7.8829389053        6.1847546670       32.2112067780
  H       -10.4154791173       10.8300729752       25.6186661687
  H        -9.1707591002       10.4668486786       26.8361001968
  H        -9.6766275376        9.2380363706       25.7855124927
  C        -3.8515853182       14.7634714307       38.1917217345
  N        -3.7739020371       16.0964170011       38.3462132912
  O        -2.8214931425       17.9294524242       37.2463007747
  S        -4.2308211051       13.8411957532       39.5337004721
  C        -4.0099198449       16.7706418627       39.5913756385
  H        -4.3349182960       17.8252531829       39.3851649647
  H        -4.8157887183       16.3346584476       40.1555131939
  C        -2.6967769790       16.8259019154       40.3812069840
  H        -1.8143125102       17.0388634321       39.7919787138
  H        -2.8561087323       17.6353717128       41.0858530142
  H        -2.5176671821       15.8454205662       40.8750211272
