352
i=
  H         4.5299185875        1.1063443104       12.8019271380
  C         3.9210428174        2.0191533675       13.0429731757
  H         4.5785258484        2.8627632399       13.1787345614
  C         2.9767938341        2.2563061064       11.8642164623
  C         3.1298439263        1.7890686339       14.2950335797
  C         3.7377423689        2.4798888963       10.5131363771
  H         2.3270562428        3.0721030229       12.0195710322
  H         2.4650516509        1.3162333591       11.8026830122
  H         2.4633561334        2.5619311821       14.3192422994
  H         3.9356658823        1.9639654266       15.0418894348
  H         2.7047275631        0.8132729539       14.3936952544
  C         4.4149534540        1.1658063676       10.0520457523
  H         3.1230974176        2.9335420235        9.7874110126
  H         4.5317577198        3.2219829945       10.7321424243
  C         4.9576437687        1.2460234592        8.5654495169
  H         3.5371813311        0.4599929736       10.0362905998
  H         5.1585942529        0.8958100374       10.7857328331
  C         6.1761856926        2.2286003002        8.4714411076
  H         4.1236569530        1.7096830162        8.0156184494
  H         5.0162075826        0.2835010606        8.0200646210
  C         7.4073171307        1.6941292086        9.2391547472
  H         6.4494781909        2.3183737948        7.3856176779
  H         5.8277479160        3.2955892446        8.7730446433
  C         8.6135826612        2.6877485818        9.2479931943
  H         7.7535843486        0.7509444051        8.8638192050
  H         7.1072518714        1.4513487470       10.3275969321
  C         8.1757037857        3.9933554962        9.8269107073
  C         9.1095018608        3.3272019163        7.9694328453
  C         9.9127716571        2.1509107331       10.0135204820
  C         8.5704239128        5.0471567287        9.0234389369
  C         7.5192471978        4.3564834722       11.0032127675
  C         9.0970216360        4.6175721361        7.8238876121
  C         9.5915605984        2.6995384175        6.8249292698
  H         9.6758608176        1.7847717576       11.0261775682
  H        10.2774912683        1.3826656405        9.3377934058
  C        11.0247596076        3.2849095441       10.1735139342
  S         8.3336435682        6.5473449446        9.8299133993
  C         7.6066699915        5.6903273688       11.1645149232
  H         7.2516181315        3.5600448633       11.7083849315
  C         9.5089732118        5.2995029246        6.7082830382
  H         9.5920335610        1.6087214902        6.8664085813
  C         9.9637643432        3.2927239603        5.6710921046
  H        10.6428503151        4.2586243930       10.3822525729
  H        11.6009346029        3.3707437338        9.2493166381
  C        12.1069736059        2.9612434868       11.2952494033
  C         7.3414499111        6.4442792610       12.4178511113
  C         9.9503695978        4.6721825074        5.5843605726
  H         9.3893367524        6.4043143802        6.6629537890
  C        10.4067657456        2.9606564637        4.4041321640
  H        12.9575243116        3.5617866358       11.1007294736
  H        12.5121507676        1.9899016374       10.9677411606
  C        11.7526106183        3.0213249442       12.8594740621
  C         7.3745140767        7.8499040771       12.5793118183
  C         7.1380163715        5.6473533122       13.6490413806
  C        10.4139210972        5.4716995106        4.3470995670
  C        10.7353527546        4.0984643631        3.6450850526
  S        10.6992085001        1.4469117828        3.6066406159
  H        12.2768919059        3.8564508983       13.1360244964
  H        10.7589864332        3.2485330025       13.0262504418
  C        12.2262655882        1.8022643958       13.6480624182
  N         7.5892832871        8.7792943153       11.5702115805
  C         7.2385131070        8.4459833651       13.8438808453
  C         6.9391158415        6.2289837756       14.9125612803
  H         7.1072980574        4.5198891795       13.5527239042
  C        11.6774407759        6.2985910410        4.5944412992
  C         9.2973381455        6.1931326289        3.5888264724
  C        11.1410878820        3.7402474507        2.3445022994
  C        11.1465529436        2.3505367316        2.1857918818
  H        13.1921848148        1.4820510301       13.2445102735
  H        11.6700037763        0.8866331166       13.5835863486
  C        12.5599948362        2.3059000451       15.0457974996
  S         7.4108940380       10.2538867332       12.2025001242
  N         7.2919771683        9.8485156540       13.6994899020
  C         7.0231850632        7.7165606357       15.0470137042
  H         6.8803358254        5.6314225369       15.7914658925
  H        11.4860684506        6.9703517232        5.5048739711
  H        11.6598001201        7.0027348194        3.7241721770
  C        13.0325371632        5.4481552466        4.7515719552
  H         8.8567603099        6.9656863491        4.2462109537
  H         9.6607447594        6.6411043138        2.6907776134
  C         8.1501230993        5.2553222461        3.1471561760
  H        11.3097290100        4.5346952133        1.6360997874
  C        11.5926021338        1.6145152328        0.9401851409
  H        13.5881378895        2.6393681930       14.9945014819
  H        11.9661858025        3.1998940286       15.3046110863
  C        12.4595528465        1.2705844998       16.1436929474
  C         6.9155271479        8.4850470655       16.2430273598
  H        13.0032836790        4.7017549835        5.5465321296
  H        13.2637439021        4.8553511250        3.8373956045
  C        14.2255834240        6.3750660281        4.8898033749
  H         7.7539742788        4.6008089292        3.9352136664
  H         8.4162380684        4.5914161819        2.3125988042
  C         6.8965651022        6.0415609361        2.7863734738
  C        11.6400253305        0.2059068690        0.6783265990
  C        11.8653927918        2.3967088276       -0.3075610944
  H        13.0872749823        0.4154374274       15.9928148888
  H        11.4065022979        0.9959198505       16.3106085498
  C        12.7838912251        1.9863906451       17.5177313101
  H         7.0296852284        9.5537871456       16.0075158316
  C         6.6165903982        8.1256863798       17.5439218603
  H        14.0595170655        7.0610083540        5.6302861619
  H        14.2743783678        6.9830515773        3.9856399329
  C        15.5433702608        5.5844883892        5.0573473821
  H         6.5115129821        6.5837657934        3.6044669148
  H         7.0494301857        6.6627305484        1.9363401160
  C         5.7999804167        5.0815975755        2.3733932961
  N        11.1758482798       -0.6645058074        1.6362462469
  C        12.0035249898       -0.4065365381       -0.5123414281
  C        12.2884770940        1.7858651510       -1.4901062185
  H        11.9823733254        3.4187620837       -0.3282591478
  H        12.0135366683        2.6593255747       17.7289523428
  H        13.6612268539        2.5746631925       17.4127293333
  H        13.0738617143        1.3496198977       18.2910254458
  S         6.2413392413        6.4800358011       18.0651945096
  C         6.4850746009        9.0984995310       18.5671892706
  H        15.4852322638        4.5077778623        4.7788839424
  H        16.3600314972        5.9099446668        4.3969952381
  C        15.9449018899        5.5612787987        6.5772909394
  H         5.3601006503        4.8527826707        3.3320430604
  H         6.2385809186        4.2116133887        1.9027745762
  C         4.7595767427        5.6724038839        1.4296975586
  S        11.4637538050       -2.1322603673        1.0628748369
  N        11.9708187834       -1.8266598220       -0.3967976690
  C        12.3607121385        0.3090913505       -1.6293560117
  H        12.3899985975        2.4257516700       -2.3495255962
  C         5.9515361050        7.1411342860       19.6537776204
  N         6.1376230807        8.4860513561       19.7316103142
  O         6.6380731839       10.2636978402       18.3191956965
  H        16.0833871248        6.5690681527        6.8594784266
  H        15.0410612959        5.1532389783        7.0103061156
  C        17.0630059042        4.5379147567        6.9195690670
  H         5.2462371887        6.0486653766        0.5603206709
  H         4.0946549748        4.9229100743        1.0931984437
  C         4.0097710650        6.7891741011        2.1388862628
  C        12.6269113952       -0.3934281325       -2.8442549109
  S         5.4031758705        6.2537578766       20.9857279395
  C         5.9612278596        9.2487858548       21.0056399627
  H        16.7555541230        4.1730873816        7.8550872129
  H        17.1725617796        3.6998087427        6.2222704345
  C        18.3448070629        5.3012116572        7.2686676205
  H         3.7428575055        6.4693461747        3.1203767171
  H         3.1300670609        6.8314751155        1.5892574718
  C         4.4397620955        8.3223290473        2.0919404844
  H        12.3873280783       -1.4063773436       -2.8013844997
  C        13.1829710947       -0.0254373255       -4.0676378194
  H         5.1994725391        8.8365673315       21.6924355378
  H         5.7761027930       10.3008648879       20.8572859902
  C         7.2340895997        9.2085856908       21.8892640701
  H        18.7756757560        4.7915038401        8.1562505990
  H        18.1293271319        6.3142502676        7.6897844452
  C        19.3419290178        5.3657684525        6.1316584305
  H         4.7126002616        8.4245891507        3.1034693185
  H         5.3690976745        8.4094476816        1.4834945351
  C         3.3229149995        9.2086608299        1.5127117685
  S        13.8347878288        1.5497599817       -4.4921547258
  C        13.3055010875       -1.0896721280       -5.1240328475
  H         6.9722725756        9.3267466114       22.8934787021
  H         8.0401263438        9.8964521553       21.5952018953
  H         7.6476865672        8.1900265870       21.8308158981
  H        18.9434792937        5.0730899528        5.1842691852
  H        19.6973317921        6.4228515913        5.9638253534
  H        20.2081733964        4.7464961046        6.2659064516
  H         3.7664325364       10.2229720839        1.5783988937
  H         3.0706910787        9.0010812250        0.4526835185
  H         2.3958748596        9.2974558116        2.0925357934
  C        14.2505042502        0.7220579794       -6.0073355547
  N        13.9739639577       -0.5865279044       -6.1466987328
  O        13.1576028450       -2.2992236085       -4.9636086825
  S        14.7451617287        1.5525199916       -7.4799793840
  C        14.2392050725       -1.3074735752       -7.3886586189
  H        14.2116505110       -2.3633010826       -7.1753190366
  H        15.2811979567       -1.1594246580       -7.7491467751
  C        13.1451261738       -1.1540370041       -8.4872308811
  H        12.1959121117       -1.2711947504       -7.9468647229
  H        13.2322494024       -1.9118636573       -9.2079233314
  H        13.1722687433       -0.2260884362       -9.0386758000
  H        -1.2443097271       14.3263418246       15.8625174376
  C        -2.0095249404       14.0287018813       16.6079682866
  H        -2.5691416015       14.9852555321       16.8593994120
  C        -1.3465668052       13.4759043577       17.8236132097
  C        -2.9249552715       13.0271181006       16.0048589332
  C        -1.9985732385       13.8983402124       19.1275739461
  H        -1.4295041509       12.4272500675       17.7002903129
  H        -0.2863400678       13.7672023636       17.8282441001
  H        -3.5771373384       12.4832137782       16.6947186061
  H        -3.6014843208       13.5339065341       15.3911888897
  H        -2.3067843834       12.2692703998       15.4961640677
  C        -2.0466271567       12.7160565463       20.0392491189
  H        -2.9961395836       14.2774783871       18.8824868954
  H        -1.3463939942       14.7134829747       19.4918681024
  C        -2.4829257302       13.0652961727       21.4442994271
  H        -2.7033293688       11.9121279518       19.5839948516
  H        -1.0750266001       12.2319441541       20.0626928721
  C        -1.3747080116       12.7007812828       22.4302945541
  H        -3.3349767970       12.4495731012       21.7616443593
  H        -2.8644375451       14.0628446388       21.5435905129
  C        -0.1609073291       13.6072096611       22.6122160484
  H        -1.7862020000       12.5854905659       23.4345859473
  H        -1.0398969513       11.6609603844       22.2344013641
  C         1.0507600500       12.9298942475       23.3141316675
  H         0.1554382633       13.9880611837       21.6104199696
  H        -0.3528498184       14.5883996624       23.0736059569
  C         1.4494162847       11.5635368915       22.7267696189
  C         0.7685378040       12.2152519503       24.6282230453
  C         2.2813257222       13.8564374903       23.6140191674
  C         1.3146771714       10.4658507986       23.5748500526
  C         1.9888306076       11.2098842059       21.4717645579
  C         0.8489725629       10.9124579895       24.7499416842
  C         0.2589868423       12.8656084045       25.7450227501
  H         2.4457116859       14.3684027114       22.6130541223
  H         2.1418222612       14.6198900346       24.3607791830
  C         3.5797694000       13.0470733016       24.0695715185
  S         1.7823012718        8.9463278202       22.7944648760
  C         2.1451406783        9.8404880301       21.3366805968
  H         2.1401360149       11.9758164549       20.7326324522
  C         0.4719192410       10.3039507372       25.9339102915
  H         0.1824048787       13.9264392339       25.6856766663
  C        -0.0363072314       12.3062367017       26.9674688549
  H         3.9037149203       12.3097822060       23.3330104301
  H         3.4380388638       12.5194018559       25.0323757608
  C         4.7904184004       13.9562047355       24.2959833255
  C         2.6069708429        9.1392898349       20.0768489002
  C         0.0898801659       10.9759050659       27.0970689466
  H         0.6036098538        9.2414527637       26.0428481225
  C        -0.3755872654       12.7094091775       28.2400327461
  H         5.5906886964       13.3585408927       24.7908962780
  H         4.5940036306       14.6427511169       25.1316275689
  C         5.3085644405       14.8285556840       23.1887364473
  C         2.5002098135        7.7619624504       19.8226531645
  C         3.1083657978        9.9244185173       18.9585441982
  C        -0.1849582531       10.3126895170       28.3465541356
  C        -0.4920019554       11.6173651810       29.0964218747
  S        -0.7880380679       14.1785673406       29.0349356206
  H         5.9020202252       15.6454805148       23.5590785841
  H         4.5521176550       15.2523004029       22.5660819160
  C         6.1425320159       14.0672522644       22.2284141519
  N         2.1569653862        6.8165451551       20.8007928798
  C         2.7625223691        7.1299424342       18.6078168067
  C         3.4464902744        9.3274217860       17.7190371324
  H         2.9640695784       11.0541063284       18.9644792115
  C         0.9442307345        9.4189430298       29.0460822373
  C        -1.4423564926        9.4642496250       28.3350267811
  C        -0.8450853237       11.9918962635       30.4219687132
  C        -1.0562524174       13.3277953232       30.5374677588
  H         7.2169071007       14.4094054360       22.3159019350
  H         6.1510823234       13.0324431817       22.4860912016
  C         5.6755536053       14.1871463477       20.7425379560
  S         2.2422392515        5.3600216807       20.1650948608
  N         2.5810546965        5.7255408235       18.6458445598
  C         3.1645794755        7.8660260919       17.4611025427
  H         3.7128448474       10.0546517517       16.9266069425
  H         1.2988945782        8.5798292759       28.4558434999
  H         0.3631164227        9.0308817955       29.8514526622
  C         2.1304992424       10.2647895618       29.6351793909
  H        -1.3538171646        8.4385978209       27.8457605137
  H        -1.6685815191        9.2873556276       29.3906889179
  C        -2.6083812585       10.2173289572       27.6820590586
  H        -0.8625671127       11.2201762169       31.1227267105
  C        -1.4455202714       14.1217664431       31.7817096075
  H         5.9126116155       15.1787340475       20.3691886714
  H         4.5920942778       13.9874828578       20.6712778853
  C         6.3709122091       13.2513896064       19.8583665900
  C         3.4165667053        7.2084306271       16.1757540927
  H         2.8326741155       10.5123319132       28.8387198097
  H         1.8452062130       11.2902425836       29.9073719951
  C         2.8445566830        9.4597247579       30.7706156290
  H        -2.3690224841       10.6272565869       26.6810938436
  H        -2.9477375550       11.1644821110       28.1404263995
  C        -3.9668112130        9.4943560440       27.5429735878
  C        -1.6218868786       15.5223758777       31.9010479482
  C        -1.6008580551       13.3734885659       33.1136686538
  H         6.3664805653       12.3335644079       20.3841485679
  H         5.8850231289       12.9475893856       18.9358307410
  C         7.8569315400       13.7208996275       19.6262068510
  H         3.3816167056        6.1674952267       16.4010905373
  C         3.6846952476        7.6869206892       14.9154157185
  H         2.8208740007        8.4599464100       30.5002373656
  H         2.3752988782        9.6968794595       31.6927607902
  C         4.2337489924       10.0750110605       30.9933801154
  H        -3.9374396150        8.7587356758       26.7722683632
  H        -4.1985094606        9.0398152481       28.4669400887
  C        -5.1481648558       10.3732141225       27.0856336051
  N        -1.3750805413       16.4156976708       30.8233907997
  C        -1.8905397064       16.2061284650       33.1005131698
  C        -1.8023468968       14.0290319032       34.3067379474
  H        -1.5054032914       12.2731973894       33.2057542316
  H         7.8333847792       14.7023375348       19.1708037489
  H         8.3189002750       13.9215929490       20.5306804082
  H         8.4544222329       13.0994379071       18.9840251620
  S         3.8543757010        9.3095599898       14.3229754572
  C         3.7459448095        6.6479155100       13.8431173265
  H         4.3488645201       10.9717637526       30.3136836677
  H         4.1228277080       10.3200624117       32.0205995445
  C         5.4031025747        9.0819704253       30.7688121015
  H        -4.8806022733       11.3283670831       26.7223298889
  H        -5.5957348316       10.6463600721       28.0116071379
  C        -6.1358748791        9.7172784333       26.1236058793
  S        -1.3617487267       17.9243368663       31.5074553962
  N        -1.7351981135       17.5754886521       33.0626620228
  C        -2.1497409218       15.4933702265       34.2861326251
  H        -1.7334572558       13.4824215896       35.2233247918
  C         4.0893859178        8.5663033853       12.7174524085
  N         4.0861204688        7.2188669026       12.6820285463
  O         3.5903015971        5.4908545390       14.0053874992
  H         6.2641071981        9.6854491139       30.5745761555
  H         5.1686467134        8.3794776509       29.9330317379
  C         5.5341206325        8.3094656343       32.0807184501
  H        -5.5300726295        9.3459166581       25.2642435969
  H        -6.4768279458        8.7940607807       26.5776538569
  C        -7.2357592445       10.7054562194       25.5787839353
  C        -2.3139807065       16.2164696432       35.4695816908
  S         4.2958819050        9.4797044866       11.1627430267
  C         3.9703686356        6.3960381350       11.4717283436
  H         6.0140042327        8.9566604799       32.8735987050
  H         4.5929970544        8.2011974571       32.5570497306
  C         6.2042675724        6.9511896180       31.7838800905
  H        -6.9021161763       10.9826616391       24.6077885628
  H        -7.5298755875       11.6343881924       26.1711540225
  C        -8.5007714315        9.8760231984       25.4372280801
  H        -2.0570342916       17.2428689642       35.4653714455
  C        -2.8852468842       15.9694504664       36.7263629638
  H         4.7224088540        6.7202855587       10.7532786980
  H         4.3050637039        5.3713487074       11.5942645033
  C         2.5493246046        6.5499867551       10.9953412251
  H         6.7755768533        6.5399603417       32.5885911801
  H         6.9085479376        7.0477435862       30.9818609903
  C         5.1194311489        6.0136860890       31.3777376442
  H        -9.2104003906       10.2902653166       24.7419538439
  H        -8.2611000652        8.8853171082       25.0400897149
  C        -9.1534681259        9.6648603117       26.7717854247
  S        -3.5974509305       14.4794172892       37.2536941506
  C        -3.0406798364       17.0151760238       37.7768273563
  H         2.2373977276        5.5787449384       10.5741621688
  H         1.7993566364        6.8070115681       11.7406534038
  H         2.5066112182        7.2730080756       10.2215402764
  H         5.3681088369        5.0736004047       31.9070703191
  H         5.0156901636        5.7602928430       30.3544502449
  H         4.1748543234        6.3283609371       31.6579790001
  H        -9.6055699747       10.6645367870       26.9974670602
  H        -8.4409266217        9.3840335158       27.5469592062
  H        -9.9699399106        8.9843930177       26.7844038069
  C        -3.9451577326       15.2083480841       38.7690546860
  N        -3.7401161763       16.5252476342       38.8390973051
  O        -2.6742746979       18.2337834714       37.6141209891
  S        -4.4402391698       14.3661139802       40.1984902333
  C        -3.9656633278       17.3970862281       39.9903345922
  H        -4.1282582545       18.4130818302       39.6500984194
  H        -4.8391321396       17.0572030604       40.5899255583
  C        -2.7129428560       17.4044674710       40.8703841904
  H        -1.8356057698       17.4657284140       40.1801127625
  H        -2.7137454835       18.3362034335       41.5236342215
  H        -2.5289836453       16.5174949225       41.4634864598
