352
i=
  H         1.6441784139        2.4491607513       13.1185582746
  C         2.6751255394        2.3478243519       12.7716165061
  H         2.7499271246        1.2563010817       12.4466648964
  C         3.0298173958        3.3386891686       11.6549719490
  C         3.4194793197        2.5868683704       14.0310643805
  C         4.3673953449        3.0232464820       11.0187771954
  H         3.0903803776        4.3347853164       11.9504554996
  H         2.3855327344        3.2662266573       10.8665442872
  H         3.2302560883        1.8099495490       14.7942554488
  H         3.0003248070        3.5061305436       14.3796049388
  H         4.4732629827        2.6590772979       13.8438116486
  C         4.5301100352        1.6996072958       10.2960472583
  H         4.5493973158        3.9113265879       10.4025085051
  H         5.1537673719        3.1216735334       11.7755173495
  C         4.9596668873        1.9196485716        8.8027316042
  H         3.5517133024        1.1561976434       10.3703438703
  H         5.2178926411        1.2033445969       10.9460642911
  C         6.3508493180        2.6551821073        8.7450612083
  H         4.2599443457        2.5115605309        8.2751547348
  H         5.1552621000        1.0242592958        8.2203048687
  C         7.6618254968        1.8115302544        9.1603184981
  H         6.4788494004        2.9265005922        7.7086490198
  H         6.2604287773        3.5620297436        9.2523644506
  C         8.9211283703        2.7001095216        9.2839354651
  H         7.9549035332        1.1350941993        8.4027938749
  H         7.4998330580        1.4825127451       10.1558791609
  C         8.5354557162        4.0539387895        9.8998945058
  C         9.4310459849        3.3595444883        8.0565454511
  C        10.0357196151        1.9695935493       10.1456457897
  C         8.9320995186        5.0915998126        9.1389840576
  C         7.9431322927        4.5087479126       11.0533777513
  C         9.4805319954        4.6686490148        7.9610480656
  C         9.9011148139        2.7436878367        6.9117363444
  H         9.6299532513        1.8447815570       11.1180356032
  H        10.1108280639        1.0427102175        9.7557598226
  C        11.3113174300        2.7690426368       10.3368694284
  S         8.4598230495        6.6439093681        9.7473698766
  C         7.8985189696        5.8380491901       11.1805700716
  H         7.6108763760        3.6877617254       11.7234005871
  C         9.9028268467        5.3743720666        6.8692732100
  H         9.8496579348        1.7073178002        6.8652260379
  C        10.3834309877        3.4488156521        5.8597980259
  H        11.1068003712        3.7770762575       10.6163572350
  H        11.8028333292        2.8721180286        9.3282790461
  C        12.4302379823        2.1069361907       11.2357798311
  C         7.5736233872        6.5578431371       12.4505402447
  C        10.4535404663        4.8083597770        5.7336717669
  H         9.8488446337        6.5029466612        6.9064343870
  C        10.8659197700        3.0496254106        4.6142344230
  H        13.3172935318        2.7564726252       11.3018623029
  H        12.7293530261        1.2540982924       10.6843590534
  C        12.0168731077        1.6869436724       12.6181864170
  C         7.6969302878        7.9654549471       12.7411957063
  C         7.1272382882        5.7142546905       13.5606698071
  C        10.8791409361        5.5053711500        4.5063652970
  C        11.1548570004        4.1362300751        3.8001997428
  S        11.0657331651        1.4863800744        3.8567307763
  H        11.4403193045        0.7599498794       12.6039406395
  H        12.8773918278        1.1835129366       13.0973487535
  C        11.4710323979        2.7742229700       13.5259811750
  N         7.8092456035        8.9326132262       11.7811224949
  C         7.5136641769        8.4374247613       14.0238320921
  C         7.0430122064        6.2268978920       14.8324220404
  H         6.8246581259        4.7193361408       13.4114268367
  C        12.1518494487        6.3618892568        4.6972231055
  C         9.8057231269        6.2977874752        3.6368159895
  C        11.6538064568        3.6870742911        2.5890602228
  C        11.6124397171        2.3457343375        2.4559740640
  H        10.4626346869        3.0456215947       13.2157579365
  H        12.1253929621        3.6835061412       13.4007128290
  C        11.2846247163        2.2668224600       14.8928392435
  S         7.8944761548       10.3075250080       12.5504415843
  N         7.7660928694        9.7740264309       14.0817061831
  C         7.3315834898        7.6590921734       15.1897279028
  H         6.5388968494        5.6014711782       15.5981062720
  H        11.8889502742        7.2284052195        5.2833044315
  H        12.2815306327        6.7944086096        3.7120756622
  C        13.3288687759        5.5394049008        5.2273324717
  H         9.4803160878        7.2616958802        4.0291785420
  H        10.3029439889        6.5627261443        2.7402887805
  C         8.5581733296        5.5310423966        3.2027136556
  H        11.9038380544        4.4053312881        1.8330645695
  C        11.9076880813        1.6800015648        1.1569132383
  H        10.5134509595        2.7958475390       15.3418157853
  H        11.0690827365        1.2355438055       14.8612271498
  C        12.4978542925        2.5899879320       15.7396018985
  C         7.2138192606        8.3807450464       16.4038569085
  H        13.0479882347        4.9697594598        6.0624020204
  H        13.7058450788        4.9178549423        4.4476405836
  C        14.4474284602        6.4772410201        5.7184653803
  H         7.7249832794        6.0304415440        3.6980778895
  H         8.5235553494        4.4743110891        3.5209097272
  C         8.3054893344        5.5003129998        1.7219974301
  C        12.0259488342        0.2672027798        0.9559531985
  C        12.0012629037        2.4910537844       -0.0948055564
  H        12.7100001911        3.6138607594       15.9081334805
  H        13.4020290995        2.1456896056       15.2388931160
  C        12.3046701711        1.9756874633       17.1661425322
  H         7.4945048843        9.3621812619       16.3957545942
  C         6.9399357356        7.9668871727       17.7301080790
  H        13.9774682814        7.2854300828        6.2242292474
  H        14.9335422255        6.9197430619        4.8610169367
  C        15.4023588940        5.5592080033        6.5229480039
  H         8.4932344167        6.5117639617        1.3073345335
  H         9.0143517269        4.7952829064        1.2305599322
  C         6.8452297054        4.9356764358        1.4060416993
  N        11.5893333655       -0.7153949363        1.8883262883
  C        12.2977583629       -0.3477722309       -0.2446908623
  C        12.2980716948        1.8900003788       -1.3890039604
  H        11.7761412802        3.5027629699       -0.0155079787
  H        12.2571705637        2.8301227938       17.8622147201
  H        13.1090352397        1.3441388060       17.4986457578
  H        11.3985578009        1.4955496593       17.3667435519
  S         6.5612832882        6.3710294881       18.2350344158
  C         6.9484653198        8.9481314508       18.7845265802
  H        14.9391864832        5.1842392705        7.5070983221
  H        15.6018431593        4.7221853832        5.9203303467
  C        16.7165815459        6.3057455635        6.7364894585
  H         6.7644039125        3.9326289240        1.9555559470
  H         6.7614578451        4.5892420275        0.3278374228
  C         5.7217368033        5.9317366516        1.8190820156
  S        11.8497758228       -2.1533222478        1.2345226548
  N        12.3371385120       -1.7145986219       -0.2396068665
  C        12.5423094800        0.4029684309       -1.4509609198
  H        12.3111917501        2.5434713515       -2.2515565202
  C         6.5830902803        7.0251225840       19.9348896098
  N         6.6189297974        8.3612745988       19.9470505724
  O         7.1045919415       10.1567816829       18.5840176499
  H        16.9483753319        6.8559856323        5.9019701242
  H        16.6845410932        7.0667910034        7.4907717745
  C        17.8802140256        5.2521018272        6.8102205199
  H         4.8478770816        5.5180071692        1.2773872246
  H         5.3971424942        5.9861066829        2.8398989730
  C         5.9166662483        7.3663986771        1.3599104760
  C        12.6858620752       -0.2654956237       -2.6997422393
  S         5.7641712043        6.1977538868       21.2904800205
  C         6.5561774992        9.1427813480       21.1957647315
  H        17.7083819841        4.7280397615        7.7514689254
  H        17.9011640444        4.4953991886        6.0108208485
  C        19.2405622830        5.8017916160        7.0831955009
  H         6.3610537560        7.3777782856        0.3582417518
  H         6.4994012180        7.9628901050        2.0658719293
  C         4.5323464804        7.9332804328        1.1413879356
  H        12.4467341966       -1.2860893369       -2.6426798923
  C        13.3533131719        0.1327808493       -3.8735681042
  H         6.0014648765        8.7111942205       21.9863305280
  H         6.1098105083       10.0621670933       21.0160714456
  C         7.9321667117        9.2461483319       21.8781270819
  H        19.7847924534        5.2529547869        7.8510375059
  H        19.1274954947        6.9289494705        7.2733123519
  C        20.1181838861        5.8602117118        5.8424011725
  H         4.0518909012        7.5399781304        0.2142930842
  H         3.8495699153        7.6022918581        1.9521184658
  C         4.5651341466        9.4685222686        1.1479439721
  S        13.8791764539        1.7212191585       -4.3250128206
  C        13.3740785936       -0.8683028325       -4.9644843418
  H         8.1260071450       10.1902370131       22.3504295419
  H         8.6757059541        8.9321895277       21.2226977362
  H         7.8037453599        8.6401155612       22.6786745949
  H        21.0322960074        6.4057534616        6.0661362536
  H        20.3786222836        4.9012617176        5.4408185553
  H        19.5429049536        6.2309611484        4.9821905747
  H         5.4874172250        9.7574578167        0.5459799171
  H         3.6829685203        9.9339428953        0.7850108103
  H         4.6970623573        9.6587148217        2.2302851364
  C        14.3771405604        0.9966166622       -5.8363763452
  N        14.0707279117       -0.3182938039       -5.9656158472
  O        12.8805957969       -2.0171308188       -4.9656367002
  S        15.0287951820        1.8800634008       -7.2085625370
  C        14.1502576970       -0.9996803630       -7.2855706361
  H        14.1383195579       -2.0649638753       -7.0587508513
  H        14.9697848601       -0.7374647542       -7.8302300023
  C        12.9116565752       -0.6644059203       -8.1774601070
  H        12.7790562521        0.3795731595       -8.5104711073
  H        11.9534670307       -1.0142277279       -7.8098607240
  H        13.1047374788       -1.1640335098       -9.1303173139
  H        -3.9809209417       14.5994166558       16.4941709602
  C        -3.5624750867       13.6563160347       16.3254096538
  H        -4.3678265624       12.9474016759       16.4842861296
  C        -2.3418365168       13.4415210810       17.2039877816
  C        -3.1213743040       13.3563438559       14.9199752735
  C        -2.9169318710       13.3621399964       18.6156443940
  H        -1.7950309494       12.5704548844       16.9708458245
  H        -1.7703543951       14.2950660589       16.9800720771
  H        -3.1443098476       14.3785967112       14.4780515403
  H        -2.2124046867       12.7945137939       14.7137941397
  H        -3.8501453078       12.8118874773       14.2516561157
  C        -1.8106382427       13.1322699210       19.6432432476
  H        -3.7471123256       12.6450316860       18.6918870571
  H        -3.3988986838       14.3540434043       18.8132418818
  C        -2.3162387292       13.3616493162       21.0898350494
  H        -1.4687320832       12.1077977176       19.5825106877
  H        -1.0128121840       13.7817806055       19.4701936230
  C        -1.3556110510       12.7645010089       22.0723234982
  H        -3.3102147337       12.9814791260       21.1788614977
  H        -2.2317462107       14.4453989542       21.2349924784
  C        -0.1482119688       13.6775288123       22.4706114196
  H        -1.9813920572       12.7529993322       22.9678909181
  H        -1.0768196193       11.7737389346       21.8552449842
  C         1.0022195214       13.0349653190       23.1843330030
  H         0.3352520547       14.0656321093       21.5749755939
  H        -0.4795896009       14.5255718894       23.0245596407
  C         1.4415284450       11.7252703419       22.5678971170
  C         0.5688661267       12.3436024293       24.4131648363
  C         2.2274813596       13.9264106182       23.3312777094
  C         1.2751805472       10.6070593935       23.3558242524
  C         2.0308091034       11.4106514719       21.3564270203
  C         0.7006119091       11.0055647939       24.5827547465
  C         0.1887659280       12.9980834050       25.6121308573
  H         2.3361662701       14.4851761419       22.3615936448
  H         2.0033536374       14.7268868747       24.0602542885
  C         3.5359862120       13.1929691497       23.7897920729
  S         1.6871279105        9.1583140995       22.6335805081
  C         2.1537519630       10.0744925179       21.2200404828
  H         2.2523626480       12.2153871811       20.6658026840
  C         0.4105694542       10.4605316877       25.8126649036
  H         0.0638477450       14.0718671102       25.4639704320
  C        -0.0259922869       12.4621588949       26.8272382850
  H         3.8389540460       12.5414281089       23.0022207411
  H         3.2865704521       12.6688496145       24.7007516051
  C         4.6310589301       14.2033702712       23.9735938297
  C         2.7795887747        9.4650941166       19.9789337439
  C         0.0643400658       11.1056842017       26.9851498804
  H         0.7541216023        9.4989529731       26.0236590695
  C        -0.4288575403       12.8977270001       28.0896354718
  H         5.3464689109       13.6724822673       24.6049460428
  H         4.1507495665       15.0226506510       24.5124881155
  C         5.2462035047       14.6765467239       22.6135875138
  C         2.8212102209        8.0782622081       19.6967464904
  C         3.4126101598       10.3596020312       18.9428040603
  C        -0.2120897169       10.4263551130       28.3213968814
  C        -0.5709598245       11.8015035773       28.9651147342
  S        -0.8160780497       14.4382805071       28.8158321158
  H         5.8784612790       15.6029182590       22.6458836048
  H         4.4768352115       14.8067535834       21.9661016608
  C         6.1422142222       13.5991286095       22.0361057783
  N         2.3809708821        7.1301135942       20.6242075343
  C         3.1561167726        7.5949540231       18.4614504939
  C         3.8162190808        9.7817531596       17.7144954602
  H         3.4565445196       11.4793901583       18.9601761952
  C         1.0041844858        9.7244597337       28.9640343936
  C        -1.5461651850        9.5484276246       28.3734866840
  C        -0.9976612538       12.2732697955       30.2358176921
  C        -1.2054783082       13.6262079034       30.2565553030
  H         7.1555487532       13.7426742262       22.3840497781
  H         5.8467921758       12.5973632315       22.2799756263
  C         6.1474271837       13.6783514413       20.4962367568
  S         2.3132610932        5.7047446209       19.8323151094
  N         2.8779090623        6.2059525614       18.3715673190
  C         3.7064175302        8.3346956638       17.4744782013
  H         4.0680673837       10.5129324225       16.9381170333
  H         1.3236337393        8.8237792803       28.4358171897
  H         0.8410602134        9.4046551579       29.9885688866
  C         2.2098395021       10.6136743792       29.0170422869
  H        -1.3963645520        8.5297612169       28.0504246996
  H        -1.7627948933        9.4311509222       29.4086405109
  C        -2.6621578855       10.2046265983       27.6496095866
  H        -1.1332695838       11.5590753111       31.0262066795
  C        -1.5608568600       14.3894978683       31.4878268579
  H         5.8598413123       14.6873471581       20.1708347205
  H         5.3500780724       13.0663068753       20.1026059073
  C         7.4801815742       13.4648850688       19.8466831451
  C         3.9690043915        7.6406541057       16.2336409172
  H         2.8563222209       10.3603351747       28.1832522387
  H         1.8662201250       11.6434532806       28.7745622775
  C         3.0103578727       10.6206255103       30.2902960306
  H        -2.2032028893       10.2878898783       26.6201020598
  H        -2.9562646659       11.1456112699       28.1033384208
  C        -3.9648573177        9.4634057757       27.5715890774
  C        -1.5731948113       15.7828756791       31.6641975395
  C        -1.6856987926       13.5989321547       32.7570029537
  H         8.2511100603       14.2154009697       20.2125734339
  H         7.9299181593       12.5875322780       20.2815317404
  C         7.4502026628       13.4788849354       18.3288779609
  H         3.8491881016        6.6260474031       16.2481168439
  C         4.0910130062        8.0988395602       14.9422040946
  H         2.8300591852        9.7622640666       30.8850727850
  H         2.8016527461       11.4740692134       30.8689942821
  C         4.5029010848       10.5510153721       30.0747498692
  H        -3.8831710574        8.6250371604       26.8805298178
  H        -4.3232671330        9.0838390172       28.5370955380
  C        -4.8645391627       10.4091212634       26.8007353287
  N        -1.3056859556       16.7155252312       30.6656287747
  C        -1.7972170374       16.3739884823       32.9046329226
  C        -1.7830176288       14.1892047138       33.9997236085
  H        -1.5007958899       12.5326142524       32.8391358487
  H         6.3733682383       13.7245662519       18.0885849209
  H         8.0807791785       14.3331282624       18.0216249431
  H         7.7494616364       12.4667150798       17.9431610912
  S         4.1509550163        9.6624198706       14.3334278265
  C         4.1064434990        7.0539459709       13.8350913262
  H         4.7712408325       11.4274975584       29.4072158481
  H         4.9501358051       10.6935645734       31.0752904909
  C         4.9552632933        9.1625385223       29.6530938575
  H        -4.2451820858       10.8694057912       25.9883059894
  H        -5.2529589499       11.1607031735       27.4600143083
  C        -5.9602351963        9.5683962845       26.1878000272
  S        -1.3942834646       18.2428515281       31.2899640922
  N        -1.7037392003       17.7623876777       32.7885777814
  C        -1.9836927838       15.6539829010       34.1168225032
  H        -1.7470560687       13.5756558713       34.8459530312
  C         4.4248526920        8.9616809468       12.7198029681
  N         4.3889066802        7.6304515884       12.5949464883
  O         3.9230495755        5.8386995660       14.0714553660
  H         5.8693763465        9.1754142299       29.0748704532
  H         4.1412016867        8.7308382244       29.0475068387
  C         5.2460420067        8.2515473157       30.8843832146
  H        -5.5629462966        8.8918132909       25.4599037206
  H        -6.5757302967        8.9646275996       26.9425090093
  C        -6.8532573066       10.5764736602       25.4396258082
  C        -2.3241483398       16.3971063814       35.2517076279
  S         4.7731943550        9.8590669466       11.2531155571
  C         4.4531704435        6.8247637662       11.3479208407
  H         6.0855893772        8.7249214254       31.4120177080
  H         4.4732199235        8.4540568896       31.5879281973
  C         5.4145271555        6.7207963576       30.6365641907
  H        -6.5417029864       10.7116351586       24.4278328782
  H        -6.8222370191       11.5713870858       25.9531634773
  C        -8.3163671178       10.0432675516       25.4659171620
  H        -2.1016410320       17.4225905558       35.2473350544
  C        -2.8509395527       15.9703361918       36.4279830133
  H         5.1008018554        7.2381288409       10.6128837080
  H         4.9114549635        5.8923907396       11.6314825380
  C         3.0538887049        6.6680382752       10.7023336975
  H         5.2169117514        6.4491192776       29.5335576084
  H         4.6331513928        6.0785453724       31.1297226092
  C         6.8753627498        6.2588225803       30.7382363803
  H        -8.7785435470       10.7870971596       24.7835132689
  H        -8.3076662822        9.0914773695       24.9855280253
  C        -8.9844332647       10.0659470132       26.7852124527
  S        -3.3857908382       14.3645410374       36.8547470010
  C        -3.1156639099       16.9677696811       37.4648700444
  H         2.7598359894        7.5470587469       10.1720189418
  H         3.0172527775        5.7667349511       10.0827295391
  H         2.3507730727        6.5484619161       11.5006021093
  H         7.0968364992        5.3518787759       30.2487525883
  H         7.0981808558        6.1132696866       31.8005757141
  H         7.5730167648        7.0682327417       30.3976753291
  H        -8.4398861897       10.7413826972       27.4121239824
  H        -8.9186833964        9.0639596760       27.1556988036
  H        -9.9835887260       10.3618402088       26.5945182637
  C        -3.9305137124       15.0508096310       38.3464996763
  N        -3.7933950146       16.3680369289       38.4711040180
  O        -2.9372862302       18.1611581969       37.3640149798
  S        -4.4596345700       14.0903777890       39.7655459524
  C        -4.0109233584       17.1719653488       39.7310146122
  H        -4.3502796453       18.2349623917       39.6061210123
  H        -4.8941681878       16.7703946445       40.2053839699
  C        -2.7642572534       17.0224975652       40.6179982750
  H        -2.9211210925       17.5190675465       41.5942489166
  H        -2.4997602538       16.0028662632       40.8374703487
  H        -1.8952783272       17.4831159873       40.2331550522
