352
i=
  H         5.0817544112        1.2342243979       12.6958401750
  C         4.6117791948        2.2067808053       12.7210834440
  H         5.4399751594        2.9164342891       12.5426877377
  C         3.5634282620        2.3242771671       11.5353167533
  C         4.0095775410        2.4368062960       14.1417303313
  C         4.2770873961        2.4583452798       10.1476410015
  H         3.0006909897        3.2460474017       11.7032931807
  H         2.8906879897        1.4562920808       11.5325967731
  H         3.6096226320        1.5365177518       14.6181867649
  H         3.2051713265        3.1428868437       14.2129311513
  H         4.6979933452        2.8053999055       14.8221809407
  C         4.7718397084        1.2680441136        9.4049219771
  H         3.7181608245        3.0358971542        9.4418043838
  H         5.1139201285        3.2472760284       10.2280055256
  C         5.4859780761        1.4929556943        8.0397426465
  H         3.8543265975        0.6698578321        9.1874576756
  H         5.4724353418        0.6425084066       10.0476297569
  C         6.5765028215        2.5363664675        8.0952189122
  H         4.7175482766        1.9868150858        7.4403506452
  H         5.7510317082        0.6372850229        7.4819122793
  C         7.8866869092        1.9766524109        8.7660717480
  H         6.9348256235        2.7763953006        7.1666411212
  H         6.3281443492        3.4536872539        8.5870508688
  C         9.1434389122        2.8449047689        8.9240580705
  H         8.0677895434        0.9873830226        8.3241677889
  H         7.5955278963        1.7823176316        9.7759599273
  C         8.7194836569        4.2013515530        9.5486415335
  C         9.5434752722        3.4626518043        7.6591245302
  C        10.2664747976        1.9586898202        9.6041090716
  C         9.0342990644        5.2852622731        8.7685121618
  C         8.2519009827        4.5866108109       10.8247689722
  C         9.5733134032        4.7856502744        7.6026648138
  C        10.0638567339        2.7869545605        6.5552756892
  H         9.7879889042        1.4358375954       10.4176505412
  H        10.5147823497        1.1613292608        8.9111835514
  C        11.4388692328        2.7960151198        9.9186738381
  S         8.5749639888        6.7635052704        9.4636958792
  C         8.1096758173        5.9718035905       10.9466002500
  H         8.1190855219        3.7903786757       11.5458288794
  C         9.9725414954        5.4380045746        6.4485049724
  H        10.1254714763        1.7355173452        6.5236487699
  C        10.4849921905        3.4224784986        5.4459312393
  H        11.0696529121        3.7557705211       10.2317013396
  H        12.0520782243        2.9423704701        8.9889781813
  C        12.3638728340        2.3028365436       11.0304650056
  C         7.8344308543        6.6417168336       12.2619703802
  C        10.5056596189        4.7531689888        5.3260576726
  H         9.9618014446        6.5303006541        6.5303265279
  C        10.9630550596        3.0493618356        4.1859963037
  H        12.9915744488        3.1796504184       11.1485221979
  H        12.8848357971        1.4167813339       10.6558715262
  C        11.7687401172        2.0253115175       12.4386485825
  C         7.8782736067        7.9936734636       12.5034940358
  C         7.3560711187        5.8685454169       13.4619540398
  C        11.0762786154        5.4669245379        4.1486369077
  C        11.1558364189        4.1393594667        3.3979280366
  S        11.1107509442        1.5694570979        3.4218356808
  H        11.0544100106        2.8515757870       12.7259267861
  H        11.1414076787        1.1381440338       12.2292643739
  C        12.7100416984        1.6608363305       13.5928392251
  N         8.2181213130        8.9322840096       11.5840028999
  C         7.6784781964        8.5795811775       13.7603204696
  C         7.0833272837        6.4643385048       14.7392776426
  H         7.1480181242        4.9028883314       13.3088826920
  C        12.4342059617        6.2025760249        4.3143595392
  C         9.9955020493        6.4123535232        3.5343640679
  C        11.4370509688        3.7372320728        2.0905403011
  C        11.3954023580        2.3922323629        1.9349535232
  H        13.6595954342        2.2252814945       13.4747883642
  H        12.8895569979        0.5465729143       13.4931451995
  C        12.1100066894        1.8747206944       15.0593675380
  S         8.1136714273       10.3916261045       12.2237802235
  N         7.7729195138        9.9766869504       13.7110902443
  C         7.2138830023        7.9118415439       14.8783334363
  H         6.7182783847        5.8657008047       15.6162711570
  H        12.2379576778        6.8943492948        5.1446577148
  H        12.8601328562        6.6609955799        3.4398526393
  C        13.5643130562        5.3995865622        4.8916723109
  H         9.9838556731        7.3502355872        4.1273172202
  H        10.3336334128        6.7535650504        2.5670909449
  C         8.5993210195        5.8070902020        3.2822508630
  H        11.5825809205        4.5160202574        1.3356169907
  C        11.7790637152        1.7113821006        0.6358296916
  H        11.7145161021        2.9489381102       15.0735204326
  H        11.3903140362        1.0604699619       15.4299130379
  C        13.1777409226        1.7665134057       16.1629721477
  C         6.8811793247        8.7049601416       16.0517927878
  H        13.2927194416        5.0053738017        5.9089895214
  H        13.8504625887        4.5778885712        4.1765707026
  C        14.8162582321        6.1795063075        5.2998994676
  H         8.2891970185        5.3051901888        4.2083080011
  H         8.7287762718        4.9071358940        2.5705209225
  C         7.5570334669        6.8874439413        2.8152948276
  C        12.0340973218        0.2845638831        0.4800595781
  C        11.9863469295        2.5035159650       -0.5827430283
  H        13.9705059415        2.4529564861       15.8672410651
  H        13.5357924257        0.7377964789       16.1674887727
  C        12.7558050792        2.1405360526       17.6425651740
  H         6.8754166713        9.7644448775       15.8159314678
  C         6.6424694564        8.2977164694       17.3466592055
  H        14.6026141604        6.8759083660        6.1437217244
  H        15.0171021370        6.7967142183        4.4122619376
  C        15.9040121168        5.1972433538        5.6303987369
  H         7.1054925925        7.4620841729        3.6227195312
  H         8.1708705952        7.5980066766        2.1867519773
  C         6.6364092911        6.3156981715        1.7666959103
  N        11.8002500306       -0.7334846679        1.4200031400
  C        12.3887750674       -0.2912033513       -0.7105741271
  C        12.3459391937        1.8850629023       -1.7979279038
  H        11.6578618384        3.5362875037       -0.5688897363
  H        11.7440401046        1.8608345378       17.8321943076
  H        12.7022318395        3.2928348014       17.7536073715
  H        13.3975062020        1.7423903265       18.3846658625
  S         6.4462645971        6.7619845928       17.9372808826
  C         6.3772554173        9.4363531422       18.3539699819
  H        15.5883058308        4.4623068511        6.3475946736
  H        16.1859408978        4.8012950702        4.6550167059
  C        17.1751519304        5.8801945859        6.1426666823
  H         6.2667017843        5.2994937384        1.9754946921
  H         7.3001105318        6.1847616708        0.9066904844
  C         5.4250161047        7.1452808031        1.4439094019
  S        12.0716387938       -2.1994077123        0.7688574956
  N        12.5218708202       -1.6990971881       -0.6854597389
  C        12.6645752339        0.4545132365       -1.8884951166
  H        12.3552353803        2.5206280464       -2.6484763058
  C         6.1104634776        7.6193495332       19.5003644986
  N         6.1922014123        8.9570836302       19.5595979312
  O         6.5254735309       10.6100303526       17.9414290779
  H        17.6476711350        6.1655218130        5.2197383381
  H        16.9889115244        6.8691537901        6.5254991126
  C        18.1236421126        5.0614857157        7.0856153596
  H         5.7782198954        8.1103699692        1.0123908011
  H         4.7525405687        6.6418432689        0.7031401408
  C         4.5819170304        7.4847946788        2.6780778393
  C        13.0622606017       -0.3179640939       -3.0608697782
  S         5.9496387556        6.8895401093       21.0486394468
  C         6.1503839097        9.8492703192       20.6549821226
  H        17.6332879220        4.7278023276        7.9885396938
  H        18.4807813105        4.2011897210        6.5111321689
  C        19.2435561418        5.8845821333        7.7017920241
  H         5.0771454845        7.4943897267        3.6622414397
  H         3.8077423499        6.7447958857        2.7667459031
  C         4.0136839416        8.9524915174        2.6443181300
  H        13.0602521676       -1.4027391324       -3.0755253310
  C        13.5212877403        0.0967030406       -4.2774533493
  H         5.3674912593        9.5530973195       21.3422522847
  H         5.9088775858       10.7940470995       20.1817394592
  C         7.5540697000        9.8996623791       21.2666441806
  H        19.7302417638        5.4047974548        8.4828020856
  H        18.9784439018        6.7773806632        8.2086463336
  C        20.2057512134        6.1353531139        6.5539368757
  H         3.6515969529        9.1408737616        3.5887959267
  H         4.8669843847        9.6369626537        2.5008946757
  C         2.9580529100        9.2381816781        1.5897589812
  S        13.7257968474        1.7157793759       -4.7997908910
  C        13.5904711548       -0.9718836173       -5.3571506087
  H         7.7180907727        9.1438794497       22.0504303497
  H         7.6861180330       10.8496884676       21.7502289382
  H         8.3926405565        9.8756399417       20.5826392994
  H        20.5008327731        5.1863090158        6.0489361235
  H        19.6813687961        6.7350988611        5.8573441777
  H        21.0984702702        6.6490151569        6.6922312296
  H         2.7237169861       10.3152278884        1.6543054203
  H         3.3396059163        8.9104434687        0.5932328749
  H         1.9991874569        8.7732774913        1.8035794408
  C        14.1078005884        0.9767986542       -6.3551014808
  N        13.9816811280       -0.3337305777       -6.4894046576
  O        13.3464019411       -2.1502859466       -5.1786720140
  S        14.5322665556        1.9310920484       -7.7157126892
  C        14.0928251820       -0.9795235947       -7.7842149190
  H        14.1419888200       -2.0988585516       -7.6119706462
  H        14.9528010570       -0.7402458130       -8.3824175182
  C        12.7892921290       -0.7112745635       -8.5103008295
  H        12.3104860801       -1.5639972296       -8.9519314260
  H        12.9234702826       -0.0783811854       -9.3073052628
  H        12.0788510118       -0.1908207205       -7.8423944869
  H        -2.6446895694       15.3866467761       16.4000196874
  C        -2.8620837418       14.3960813099       16.7796472213
  H        -3.8016598912       14.6136127463       17.1318007830
  C        -1.9149274368       14.0661788622       17.9026808816
  C        -2.8909065923       13.4120211326       15.6385583111
  C        -2.7165181286       13.6049167146       19.1668693744
  H        -1.2518707336       13.4164807703       17.4768964342
  H        -1.5372858780       15.0401935026       18.1964601494
  H        -1.8326255029       13.1386385692       15.4618065290
  H        -3.4485626641       12.4744402536       15.8253029716
  H        -3.2769008342       13.9564032681       14.8247807754
  C        -1.7294607812       13.0417028451       20.1837046918
  H        -3.4431395465       12.8834441419       18.9416007464
  H        -3.3358537285       14.4146743173       19.6662538529
  C        -2.3389701350       12.8253428631       21.5862453339
  H        -1.1948095348       12.2186882633       19.8664109774
  H        -0.9683261246       13.7715530345       20.1585058313
  C        -1.2765910107       12.4985173865       22.7079687836
  H        -2.9867179633       11.9608067674       21.6557237514
  H        -2.7728624607       13.7877029498       21.9056721283
  C        -0.0047885407       13.4964826002       22.6103081105
  H        -1.7001142931       12.4208303932       23.6713762282
  H        -0.8967559957       11.4998067885       22.4113049344
  C         1.2871185117       12.9585872202       23.3109924408
  H         0.3990997107       13.7106968522       21.5986180563
  H        -0.3226972058       14.4636789361       23.0522998530
  C         1.6701092230       11.6503765785       22.6157709950
  C         0.8704445155       12.2970483342       24.6363789271
  C         2.4453463407       13.9325586754       23.2949277906
  C         1.3558292307       10.5339485461       23.4277737645
  C         2.1969089113       11.3121389244       21.3880797366
  C         0.9260681052       10.9540670391       24.6544226165
  C         0.3538101890       12.9110042829       25.7040748592
  H         2.5979697948       14.3817194680       22.3115028814
  H         2.3145027935       14.7817274276       23.9764766081
  C         3.6760378834       13.3059142356       23.9517763846
  S         1.8125460028        9.0444450278       22.6532608274
  C         2.2357591543        9.9838146852       21.2042728733
  H         2.4601064466       12.2090722330       20.8101083297
  C         0.5355495240       10.3906082252       25.8587446593
  H         0.3953316142       14.0040627185       25.7139375855
  C        -0.1251038092       12.3319830979       26.8191878536
  H         4.0391055336       12.5455141754       23.2723285523
  H         3.4543742887       12.6904768521       24.8640342746
  C         4.7761393136       14.3476047575       24.3797865728
  C         2.6259845411        9.2503708958       19.9721126778
  C        -0.0412922915       11.0011042678       26.9828129544
  H         0.7181690701        9.3192216440       25.9121093581
  C        -0.5617798348       12.7447008616       28.0600817041
  H         5.5045062092       13.8784640474       24.9789445045
  H         4.3684448934       14.9894218411       25.1723249136
  C         5.4673064239       15.1602743695       23.2792891391
  C         2.6387768869        7.8463622116       19.7742226064
  C         2.9731732338       10.0640508353       18.7482859897
  C        -0.5057091376       10.3144984735       28.2192484810
  C        -0.7320173909       11.6444399619       28.8905273713
  S        -0.8121852152       14.2061961336       28.8687308886
  H         6.1867536242       15.8192546626       23.7565839986
  H         4.7804757419       15.7136563058       22.6561518395
  C         6.2980540222       14.2985265106       22.3298445058
  N         2.3359024437        6.9706506271       20.7510034478
  C         3.0078610596        7.2942264695       18.5564540919
  C         3.0400080980        9.4913938996       17.4958721526
  H         2.9669536462       11.1467514222       18.7033142929
  C         0.6106815497        9.4374027182       28.8789721843
  C        -1.8621582257        9.5586947263       27.9050368371
  C        -1.2129217139       12.0376140446       30.1628582512
  C        -1.3030930879       13.3967406557       30.2975927608
  H         6.9933665546       15.0779279304       21.8475218536
  H         6.9945137270       13.5950955789       22.7779213896
  C         5.3964605689       13.6312319939       21.2278121360
  S         2.4976640449        5.4471806770       20.1159600780
  N         2.8879988878        5.9030366862       18.6393255180
  C         3.3018721989        8.0491364649       17.3655715968
  H         3.2995428865       10.1959207166       16.7157113878
  H         0.8022545349        8.5253150337       28.2832102929
  H         0.1382489504        9.0499410612       29.7803526106
  C         1.9225820735       10.0861041283       29.1487544557
  H        -1.7276701429        8.8805539142       27.0660831279
  H        -2.0795378935        9.0052034937       28.8590368721
  C        -3.0679770704       10.4922442943       27.5816694328
  H        -1.3304882459       11.2739213906       30.9647400658
  C        -1.4958654835       14.1951163289       31.5622963984
  H         4.3910181285       13.9747388471       21.2492610017
  H         5.3862322876       12.6276647750       21.5053574078
  C         6.0344462647       13.7073479557       19.8543160512
  C         3.6382109841        7.3102772451       16.2196859837
  H         2.4063012489       10.4738948635       28.2467878170
  H         1.8494193352       10.8976023625       29.8832114257
  C         2.9384628616        8.9967908319       29.6202281583
  H        -2.9571642033       11.3596895463       26.9027905744
  H        -3.2483945695       10.9000840846       28.5331124866
  C        -4.2650456425        9.6557674559       27.1344349721
  C        -1.5255006808       15.6348164204       31.6464930677
  C        -1.8304763619       13.4856913540       32.8197744698
  H         5.5863755606       12.9747727140       19.1673489891
  H         5.7699506490       14.6568238570       19.4633362679
  C         7.5672113549       13.4821313352       19.7456579791
  H         3.7859534581        6.2588049869       16.4420220137
  C         3.8929105881        7.7107385401       14.9166462124
  H         3.2523570092        8.3545354007       28.8778768033
  H         2.4081530303        8.3815476960       30.4052858392
  C         4.2229406156        9.6162240056       30.3037424082
  H        -3.8718400619        9.0663166439       26.2792080039
  H        -4.5442347241        9.0223365863       28.0057389683
  C        -5.4225228296       10.6659684343       26.8822501853
  N        -1.4317918600       16.5378526232       30.5553320144
  C        -1.7753329920       16.3209741528       32.7892215183
  C        -2.1181195446       14.1872035002       33.9903588166
  H        -1.9327522750       12.4432481680       32.7876632732
  H         8.2069754020       13.8755366303       20.5572506708
  H         7.7779678717       12.4709804085       19.5738636781
  H         7.8984454170       13.9446488081       18.8490593573
  S         4.0386450839        9.4149594230       14.3082195073
  C         3.9890795539        6.7300162839       13.8957540899
  H         4.5163137955       10.5650483293       29.7809119817
  H         3.9186761417       10.0339858958       31.3094218538
  C         5.4532455912        8.7053821038       30.2613655015
  H        -5.1730623388       11.6157810281       26.4034861029
  H        -6.0145301376       10.8500197675       27.7980604389
  C        -6.3376739608        9.9371264011       25.9421786932
  S        -1.6249397865       18.0692140451       31.1271072262
  N        -1.9321078704       17.6933846270       32.6652779227
  C        -2.0315165821       15.6698070637       34.0498322521
  H        -2.5051182040       13.6997056726       34.8832844367
  C         4.0895726052        8.7239341929       12.7530086508
  N         4.0654720677        7.3581801677       12.7052461178
  O         4.2177689572        5.5383740520       14.1835562580
  H         6.3308538389        9.2162403590       30.5083786400
  H         5.6642105561        8.4709331323       29.2299192252
  C         5.3248805151        7.4580472257       31.0992094254
  H        -5.8116089890        9.6865441935       25.0500249426
  H        -6.5941366573        9.0041220008       26.4499920398
  C        -7.4907354043       10.8346522419       25.6138355576
  C        -2.4688179114       16.4804571251       35.1208831594
  S         4.3682164906        9.6807999298       11.3284209348
  C         4.2186101654        6.5587626202       11.4559885861
  H         5.0733333066        7.6366103473       32.1640053742
  H         4.4560354719        6.8869272604       30.8645611745
  C         6.5572101502        6.5533187693       31.1725722636
  H        -7.0162889199       11.6355352469       25.0532700806
  H        -7.9662540238       11.1574919840       26.5728429845
  C        -8.5271600441       10.0664397255       24.7952022509
  H        -2.2936424119       17.5573782083       35.1443025377
  C        -3.0106141978       16.2567658523       36.3718324458
  H         4.5506667476        7.1744224774       10.5987930868
  H         4.7698434445        5.6731011887       11.5137114902
  C         2.8415250031        6.0622198902       11.1083585453
  H         7.1948522928        6.9035860636       31.9146409657
  H         7.1712850682        6.5665586116       30.2672151356
  C         6.1424391987        5.1388462881       31.4210366297
  H        -8.7327163906       10.5678182642       23.8044359016
  H        -8.1154324293        9.1466886154       24.5101694746
  C        -9.8754988363        9.9679881713       25.4796554812
  S        -3.5187642771       14.7067016012       36.9545769239
  C        -3.2250095885       17.2732622375       37.3818756365
  H         2.8311219072        5.1733563654       10.4595952563
  H         2.1970301322        5.8253757258       11.9886114049
  H         2.3177109037        6.8254378698       10.5343815292
  H         6.6466217326        4.4938310403       30.6814783776
  H         5.0577101129        4.9541860116       31.3394532702
  H         6.4299372031        4.7872000166       32.4050874019
  H       -10.6227342163        9.5195940817       24.8213686456
  H       -10.1939257066       10.9009183462       25.9299880456
  H        -9.7105822788        9.3119849509       26.3545986095
  C        -3.7292418896       15.3579565848       38.5324294198
  N        -3.6054046000       16.7248273054       38.5807913879
  O        -2.9511295591       18.3799522557       37.1251330666
  S        -4.3577490997       14.4573696102       39.9443697665
  C        -3.9435847476       17.5151583155       39.7811003817
  H        -4.0410027257       18.5968927588       39.4442242633
  H        -4.9263129182       17.2177491693       40.2703484818
  C        -2.8782344986       17.3988304221       40.8636332285
  H        -1.9075885838       17.5036939537       40.4110511117
  H        -2.9753467151       18.1178149221       41.6701240473
  H        -2.9271468173       16.4461739310       41.4601920529
