352
i=
  H         4.3204665498        1.7410507761       13.1167993717
  C         3.6892627560        2.6060202440       12.9935342425
  H         4.4138599291        3.3997806262       12.9371911592
  C         2.8067422350        2.6412906309       11.7385029334
  C         2.8874107679        2.8265006428       14.2794364881
  C         3.6490756061        2.7590760773       10.5042619589
  H         2.1915363934        3.4751124855       11.7857646893
  H         2.1070901481        1.7625515103       11.7371699440
  H         2.1614837398        2.0336327438       14.2646030321
  H         2.4592600193        3.8498013314       14.1812408779
  H         3.4793442508        2.6667122064       15.1324559216
  C         4.4836651836        1.5165610500       10.0926621724
  H         3.0434370329        3.0236971333        9.7036862476
  H         4.2431074415        3.6427219244       10.6763763527
  C         5.1729082981        1.6683512877        8.7497809051
  H         3.7589204227        0.7254510018       10.0396323954
  H         5.2372783575        1.1957071364       10.7754282719
  C         6.4309346866        2.5726316423        8.7407113995
  H         4.4406678963        2.0840755476        8.0300230894
  H         5.4657954793        0.7002185675        8.4547453405
  C         7.6918411743        1.7624370021        9.1112266437
  H         6.4720077399        3.0180064546        7.6879244289
  H         6.3708954684        3.3879868125        9.3883783380
  C         8.9405946140        2.6271715746        9.4160329947
  H         7.9357899492        0.9297763207        8.4374966934
  H         7.3633580119        1.4312103284       10.0328449710
  C         8.5783851903        3.9465309926       10.1074822316
  C         9.4075630332        3.3775780113        8.1686635430
  C        10.1583426077        1.8825684942        9.9139252870
  C         8.8169151480        5.0739456678        9.3329092968
  C         8.0393813581        4.3461583175       11.3230334733
  C         9.3359073258        4.7068366945        8.0990222644
  C         9.8869235192        2.8089669541        6.9968733925
  H         9.9383787718        1.3140655084       10.8147077510
  H        10.3812972759        1.0645566231        9.2270535972
  C        11.4666404551        2.7231072889       10.2456130772
  S         8.4324735991        6.6169378993       10.1001618444
  C         7.9527627314        5.7267950454       11.4369543712
  H         7.8280396433        3.6225822007       12.0547815962
  C         9.6512268144        5.3432541750        6.9303534570
  H        10.0353235087        1.7699071023        7.0384406864
  C        10.3327038256        3.4284216807        5.8735866003
  H        11.2476622352        3.6479075049       10.8010604264
  H        11.8644555674        2.9924910333        9.2697399255
  C        12.4338493634        2.0334788095       11.1972681231
  C         7.4615570793        6.4484675250       12.6489300143
  C        10.1607561919        4.7670689541        5.7592612279
  H         9.5380992209        6.4428580760        6.9808133898
  C        10.7352684402        3.0565628458        4.5774155231
  H        13.2765406266        2.6092546835       11.2853364141
  H        12.7680673502        1.0971426766       10.8765569497
  C        11.8067747016        1.9257107337       12.5981991566
  C         7.6259084411        7.7967363289       12.9794828388
  C         7.0206684276        5.6066404953       13.7172962998
  C        10.5410893055        5.4604668775        4.4981510318
  C        10.8123570136        4.1423945939        3.7654637084
  S        11.0367959255        1.5958168692        3.8475972558
  H        10.7657342541        2.2069382172       12.6235140837
  H        11.8465000660        0.9016654418       12.7135327741
  C        12.5165244934        2.5801530950       13.7735101448
  N         7.9825214763        8.7974981963       12.0620691703
  C         7.3424078293        8.3440443485       14.2286122551
  C         6.8287810536        6.1305613687       14.9763424981
  H         6.6655726086        4.6233520299       13.5935945445
  C        11.8152487171        6.3434487722        4.6357322359
  C         9.3623313613        6.2867635354        3.7571390456
  C        11.0275539563        3.7967289835        2.4230121327
  C        11.1680690875        2.4435161939        2.3276389343
  H        11.8480166190        3.2962744841       14.2127445899
  H        13.4463818353        3.1174312307       13.4364215137
  C        12.9272534781        1.5112690802       14.8052355684
  S         8.0014687185       10.2342409549       12.8434161513
  N         7.5390064465        9.6750603962       14.3192520125
  C         6.9668113885        7.5570122095       15.3231387712
  H         6.5141398345        5.5434188810       15.7874474562
  H        11.6663570469        7.0056611059        5.4583601301
  H        11.9692925899        7.0142144045        3.8082851467
  C        13.0769378188        5.5446676951        5.0172057968
  H         9.0823801217        6.9841188241        4.5327174345
  H         9.8410738095        6.8463744384        3.0080728088
  C         8.1155763127        5.4880416340        3.2792016790
  H        11.0557877217        4.6412010105        1.7677218322
  C        11.6667676048        1.7348768930        1.0733726996
  H        12.0912110558        0.8740971840       15.1669840872
  H        13.5775202679        0.8400932411       14.3184650196
  C        13.5087884960        2.0330632371       16.0873770492
  C         6.7957185050        8.2003547240       16.5802595147
  H        12.9184294512        4.9594287291        5.9357645389
  H        13.2798977004        4.8705658586        4.2236641361
  C        14.2571114847        6.4691885392        5.4085098979
  H         7.5534110200        5.0819515016        4.0990086102
  H         8.5381367492        4.7945289528        2.5399788094
  C         7.1393362461        6.3722689355        2.4079315608
  C        11.8128320612        0.3536223959        0.8787609042
  C        11.8191835519        2.5222447655       -0.2274673409
  H        13.8209445115        3.0384687586       15.9663574561
  H        14.4695452574        1.4815484493       16.3272891448
  C        12.5348049266        1.9491329357       17.2881806433
  H         6.7345584861        9.2404205572       16.5093593017
  C         6.4853640369        7.6538969568       17.8232198722
  H        14.0560277407        7.2697380062        6.2244665883
  H        14.2802433143        7.0591341288        4.4527497800
  C        15.5833683009        5.7668242569        5.4863113594
  H         6.7628373106        7.2263448146        2.9418036139
  H         7.7271968191        6.7878183214        1.5783538334
  C         5.9896654413        5.5306840303        1.8456336346
  N        11.4874994022       -0.5655737145        1.8377887844
  C        12.2072813523       -0.2503518874       -0.2917930405
  C        12.1245372654        1.9513561853       -1.3928250143
  H        11.6287502173        3.5796224477       -0.2432555364
  H        12.7852887041        2.7449332053       17.9476562765
  H        12.6260819419        1.0157867811       17.8612740285
  H        11.5058488792        2.0413239886       16.9986325044
  S         6.3192274857        6.0375754985       18.2634160502
  C         6.4151041446        8.6215587149       18.9345617425
  H        15.3726493997        4.7557865414        5.1148175784
  H        16.2466090671        6.3180569965        4.7658712072
  C        16.2662529662        5.7117987804        6.8389473896
  H         5.3696823842        5.1166658082        2.6496059942
  H         6.2578569929        4.6678781936        1.2128391594
  C         5.1489782213        6.5298325605        0.9533711751
  S        11.6645262721       -2.0537240748        1.2390206093
  N        12.1712494926       -1.6452121075       -0.2460881391
  C        12.2993252625        0.4436506023       -1.5090714208
  H        11.9740487848        2.5159101777       -2.2678754484
  C         5.7223087377        6.6709163533       19.7764611645
  N         5.8983290343        7.9954867385       20.0013331980
  O         6.8199578651        9.7381282400       18.7391590567
  H        16.2184029664        6.6571907476        7.2881476893
  H        15.6416367302        5.0398621444        7.4508605003
  C        17.7168130210        5.0883635981        6.6967135514
  H         5.7433555314        6.9959169676        0.1789286085
  H         4.3879687694        5.9571359189        0.4839235518
  C         4.2986063340        7.5405360087        1.7235785896
  C        12.6709738453       -0.3354901390       -2.6277703075
  S         5.3774444080        5.6157404306       21.2495715045
  C         5.7397188286        8.7046881798       21.2479259755
  H        18.0642382000        5.2375390337        7.7323837388
  H        17.5462153745        4.0142574743        6.4516477965
  C        18.6068105484        5.7860685194        5.6424562208
  H         4.7484536930        8.0271737749        2.5724704308
  H         3.5472373820        6.8514123722        2.0968247181
  C         3.6609376139        8.6529246755        0.9402407374
  H        12.5099481822       -1.3395485750       -2.5561111752
  C        13.0206073938        0.0293603795       -3.9059563800
  H         4.9230234808        8.2722220844       21.7801055029
  H         5.4004868303        9.7391577249       20.9556628772
  C         6.9503717166        8.6827730423       22.1267959268
  H        18.1670533977        6.7916178752        5.4687914741
  H        18.4584520920        5.3239995852        4.6668781943
  C        20.0491616414        5.8782779194        6.1715863199
  H         3.4485283915        8.2226100886       -0.0895906654
  H         2.6248325115        8.8393666887        1.2934883810
  C         4.5269931024        9.8550430367        0.6729660127
  S        13.5689638639        1.6224275639       -4.2384540590
  C        13.1325259965       -0.9469074238       -4.9310674489
  H         7.3324680757        9.6373009815       22.3867001330
  H         7.8016654506        8.2144499385       21.6154416562
  H         6.8031835826        8.2068862514       23.1008539455
  H        20.5934338521        6.2776312810        5.3851256363
  H        19.9485609469        6.5617904172        7.0418296335
  H        20.5425637782        4.8907437611        6.4382267332
  H         5.5330965706        9.5976791468        1.0774552524
  H         4.6901793597       10.2132646723       -0.3399049758
  H         4.3330724654       10.6886561040        1.2935510549
  C        13.9727918016        0.8919618452       -5.8371241417
  N        13.7424168828       -0.3783611310       -5.9708078859
  O        12.7354742395       -2.1164433194       -4.8211646342
  S        14.7667940715        1.7767534599       -7.1245862629
  C        14.2004793672       -1.1256468732       -7.1226234706
  H        14.5297140865       -2.1100441612       -6.8438373998
  H        14.9476888002       -0.6053842404       -7.6712537990
  C        12.9550233113       -1.2814602091       -8.0118934159
  H        12.9011189835       -0.3876756405       -8.7479024401
  H        12.0506606300       -1.2822364166       -7.4334411862
  H        12.8959573667       -2.1551787330       -8.7274575144
  H        -3.1506536302       15.3669987604       16.5313594871
  C        -3.2423211777       14.2760497580       16.4930462385
  H        -4.2519626376       13.8620717909       16.7116078742
  C        -2.2652783627       13.7347254229       17.4391562118
  C        -3.0403028589       13.7517525966       15.1167815318
  C        -2.6099124527       13.8977146706       18.8797011791
  H        -2.0029442390       12.7306620953       17.1493806496
  H        -1.2708043044       14.2233659854       17.2308412290
  H        -3.5427757079       14.2837324114       14.2723647844
  H        -2.0144942877       14.1228364862       14.8422048237
  H        -3.1675343285       12.7048681385       15.0178876442
  C        -1.6282527966       13.3825517114       19.9135630276
  H        -3.5911223861       13.5007076235       19.1103933966
  H        -2.6261282127       15.0130957359       19.0760718788
  C        -2.2106433563       13.8067555087       21.3219500872
  H        -1.3138123141       12.3345897803       19.7683768748
  H        -0.7411450228       13.9640278058       19.6941415367
  C        -1.4164340072       13.2511065216       22.5159130779
  H        -3.2306480954       13.4804309231       21.3987410000
  H        -2.3418051070       14.9351589367       21.3042374183
  C        -0.0735172070       13.9834561272       22.6640263790
  H        -2.0070604178       13.3330825666       23.3777830267
  H        -1.1516893183       12.1624173914       22.2590057186
  C         0.9981101627       13.2529645899       23.3868197842
  H         0.3376963961       14.1373830798       21.6856546430
  H        -0.2690291650       14.9065656292       23.2251378218
  C         1.3549101749       11.9127124837       22.7115853485
  C         0.6085760661       12.5413737113       24.6752978327
  C         2.3210895085       14.1255903636       23.5404540725
  C         1.0512852203       10.8185974615       23.4979717904
  C         1.9317281210       11.5785278733       21.5322952945
  C         0.6194746687       11.1959924397       24.7239747099
  C         0.0432058307       13.2014013296       25.7747645897
  H         2.6179496603       14.6584343813       22.6220023321
  H         2.1542852715       14.8293655144       24.3319955338
  C         3.5283900697       13.3711897982       24.0562190822
  S         1.5856152001        9.3152117306       22.8053924878
  C         2.1249002619       10.2164455840       21.3678243999
  H         2.1781821078       12.3630359934       20.9169684187
  C         0.2863486106       10.4984682937       25.8940388276
  H         0.0963012748       14.2568434582       25.7517619788
  C        -0.2950146034       12.5428399861       26.9017771360
  H         3.7254732192       12.3918509379       23.6299599352
  H         3.3125323420       13.2502131796       25.1035987927
  C         4.8670801760       14.0437011340       23.8910310737
  C         2.5542497624        9.4865531723       20.0504768336
  C        -0.2209436600       11.1533220497       27.0216333243
  H         0.3992278076        9.3973014507       26.0454811291
  C        -0.7665068768       12.9627572747       28.1283646439
  H         5.6388032271       13.4985851415       24.3412471669
  H         4.8787378340       15.0566357759       24.3115745687
  C         5.3047472292       14.1448889642       22.4223597256
  C         2.3416177521        8.1598013643       19.7658257967
  C         2.9014427100       10.4087170069       19.0048576779
  C        -0.6722533906       10.5408774114       28.3144894595
  C        -0.9480047125       11.8849029585       28.9603836241
  S        -1.1267366824       14.4253661239       28.8607425270
  H         6.3006766305       14.6553696842       22.5600065522
  H         4.6889668153       14.9467106298       21.9040696739
  C         5.4735876789       12.9053586495       21.6499579975
  N         1.9980062947        7.2057740779       20.6397137074
  C         2.6679463842        7.6778013677       18.5335855874
  C         3.1597096033        9.9577530183       17.7153614080
  H         2.8968737664       11.5259015562       19.0834865139
  C         0.3616987466        9.7188548765       29.1000726316
  C        -1.9495510425        9.6474807923       28.1067049619
  C        -1.4734290432       12.2262552299       30.1758457608
  C        -1.4469494469       13.5717436277       30.3335035777
  H         6.3379377483       12.3683133757       21.9773594170
  H         4.6352006125       12.2059881608       21.7225278464
  C         5.6827358923       13.2869131069       20.1882167545
  S         2.0323122884        5.7525007340       19.8958919819
  N         2.5861933979        6.3348706934       18.4756744532
  C         3.1841661809        8.4892645033       17.4147083708
  H         3.3755030420       10.6643640977       16.9560539296
  H         0.5578678884        8.7983942344       28.5678882192
  H        -0.0836580449        9.5467095270       30.1432492359
  C         1.6645023688       10.4884388413       29.1308551108
  H        -1.7854786522        8.9222903431       27.2509900105
  H        -2.1006441704        8.9633869620       28.9271234234
  C        -3.2231942425       10.3768243128       27.8518523411
  H        -1.6460526319       11.4602930497       31.0026839970
  C        -1.7744327437       14.3478746164       31.5745611170
  H         5.1205337392       14.1889556005       19.8509230466
  H         5.3944274691       12.5390022970       19.4506045203
  C         7.1928547955       13.3616193738       19.8147422125
  C         3.4471919410        7.7899499463       16.2385247445
  H         2.0399717076       10.5891588078       28.1269414004
  H         1.4763237040       11.4239154360       29.5919040175
  C         2.7124697643        9.5880397703       29.7731562089
  H        -3.0327153832       11.0925422373       27.0363095256
  H        -3.4019859006       11.0083512912       28.7083666461
  C        -4.3360568337        9.3952358202       27.4788487258
  C        -1.7357562074       15.7283877608       31.7992760993
  C        -2.2316272916       13.5692459611       32.7272628116
  H         7.7817049707       13.9008655872       20.5536310820
  H         7.5286456560       12.3391795733       19.7124516759
  C         7.3022720840       13.9059244919       18.3807513148
  H         3.3586973505        6.7020158556       16.2420098741
  C         3.7643240882        8.2215376228       14.9674921910
  H         3.1490980421        8.8357621902       29.1295357776
  H         2.3888696372        8.9557490241       30.5333474868
  C         3.9527365544       10.2802212605       30.3487519603
  H        -4.1454472279        8.8144062864       26.5656050253
  H        -4.4496685216        8.7122058314       28.2959867533
  C        -5.6003189131       10.2538895016       27.0598595028
  N        -1.4822762659       16.6269992612       30.8191481653
  C        -2.0106210101       16.2877330825       33.0171573880
  C        -2.4783643780       14.1553767299       33.9545307827
  H        -2.1243545148       12.4800127278       32.7281388183
  H         8.2029606091       14.4668747816       18.2410678805
  H         7.4701280677       13.0207363710       17.8255352087
  H         6.4676656912       14.5376825014       17.9923877268
  S         4.0059868302        9.8293725864       14.4740632656
  C         3.8952346493        7.2069676160       13.8889067599
  H         4.1064119390       11.3040526102       30.0135638271
  H         3.7502248293       10.4346357780       31.3834062606
  C         5.1399248134        9.3622039564       30.3421364688
  H        -5.3155817892       11.1312192954       26.6290977081
  H        -6.0924528716       10.6839238877       27.9057424168
  C        -6.6210454168        9.6545709818       26.1501913048
  S        -1.7612281554       18.1260277603       31.3870753921
  N        -1.9679828332       17.7226238393       32.9252113457
  C        -2.4030684527       15.5818424585       34.1485032390
  H        -2.6103428430       13.4748925846       34.7931015794
  C         4.2116278571        9.1557145688       12.8470775107
  N         4.1834512859        7.8383221615       12.7241616184
  O         3.7599264033        5.9660219670       14.0784095039
  H         5.9774967231        9.8456434510       30.9167663386
  H         5.5174958943        9.2347317148       29.3402846465
  C         4.9075154714        8.1021855975       31.1423412285
  H        -6.1288533091        9.3108464457       25.2267723742
  H        -7.0735677437        8.7845496144       26.5800014134
  C        -7.6572411459       10.6438337532       25.6444946026
  C        -2.5623856263       16.3098899122       35.3593185741
  S         4.4384307408       10.1545723618       11.3166227558
  C         4.3833316506        7.1770171862       11.4060166909
  H         4.5405489649        8.2211511217       32.1774240714
  H         4.2383357002        7.4680360644       30.6674084132
  C         6.1517722958        7.2502593110       31.4043224094
  H        -7.2612600851       11.2003911432       24.8292986983
  H        -7.8200153001       11.5702334418       26.3373672964
  C        -8.9835121565        9.9342668902       25.2661344267
  H        -2.3489894653       17.3325911468       35.2796547345
  C        -3.1448226004       15.9710238713       36.5367085935
  H         4.9211585857        7.6308153999       10.5755614979
  H         5.0288809093        6.3340998521       11.5720798845
  C         3.0503201735        6.7686106026       10.8047783432
  H         5.7692219477        6.5295365497       32.1471959102
  H         6.9759258210        7.7040170044       31.9014007147
  C         6.6386612337        6.5015678086       30.2320513155
  H        -9.5024690157       10.6577317957       24.6650516870
  H        -8.7659036070        9.1201730542       24.5425458977
  C        -9.8240229976        9.6766454846       26.5066861585
  S        -3.5971138402       14.4320295517       37.0179531070
  C        -3.3653265055       17.0060454825       37.5563980014
  H         2.4674438629        7.5975668280       10.4000418478
  H         3.2219483878        6.0096606948        9.9986524997
  H         2.4180162250        6.3829096951       11.5641854987
  H         6.8749349891        7.1725176457       29.3683595988
  H         5.8357227319        5.9040062941       29.6948052703
  H         7.4896235273        5.8230299165       30.4005146169
  H        -9.3634667303        8.8721170401       27.0467290809
  H       -10.8994355879        9.4340532545       26.3098927457
  H        -9.7992831743       10.5714362756       27.0938702967
  C        -4.2447653410       15.2234827416       38.4576941382
  N        -4.0474670565       16.5044143379       38.5846908869
  O        -3.0083588731       18.1575281739       37.3826194119
  S        -4.8010146325       14.4089609239       39.8706506882
  C        -4.1618850320       17.2614792089       39.8344166970
  H        -4.3264375814       18.2959301505       39.5618441249
  H        -4.9350514716       16.9425851642       40.5091493918
  C        -2.7746042463       17.1879151384       40.5786151749
  H        -2.0427759145       17.9574171602       40.1675181068
  H        -2.9094965663       17.2923010051       41.6719882160
  H        -2.3997560887       16.1897028208       40.5128350633
