352
i=
  H         4.4297715911        1.3957623495       13.3700867755
  C         4.3480450927        2.4688521696       13.3018680245
  H         5.3268378598        2.8538946449       13.0149928437
  C         3.5086856997        2.9511854179       12.1594724907
  C         4.2238735007        3.1746471754       14.6088084445
  C         4.2966350677        3.1030905511       10.8716156165
  H         3.0906686859        3.8964926484       12.4794490110
  H         2.5998470217        2.3003916905       11.9451980250
  H         4.7980141781        2.6410226080       15.3210844190
  H         3.2051932824        3.1817532095       14.9828261485
  H         4.5838149709        4.2068788282       14.6733922629
  C         4.8222496519        1.6836297289       10.4143000537
  H         3.6561926075        3.3735365354       10.0860541656
  H         5.0675380456        3.8926617457       10.9075863695
  C         5.3628583619        1.6876319727        8.9809389394
  H         4.0337834069        0.9616275472       10.4739521592
  H         5.6318161030        1.4947456991       11.0867815211
  C         6.5489191851        2.6104664328        8.6670037491
  H         4.5404352691        1.8928054514        8.3090615626
  H         5.5036966017        0.6599424839        8.6694436105
  C         7.8590420957        2.0140655845        9.0411792767
  H         6.6649034275        2.8854060236        7.6154140361
  H         6.4011413870        3.5521774074        9.1632463109
  C         9.1538201464        2.9211954100        9.2792595865
  H         8.2443391346        1.2485215347        8.3390730206
  H         7.5687524889        1.5713981672        9.9884100829
  C         8.7558912496        4.2154753694        9.9870660825
  C         9.4670506793        3.6645150001        8.0482663470
  C        10.3744656876        2.2153793265        9.9798609273
  C         8.8489864731        5.3400658715        9.1777793106
  C         8.2524633935        4.5317758867       11.2669371633
  C         9.3382398450        4.9703298486        7.9314280114
  C         9.9059249865        3.0749360058        6.8890204202
  H         9.9997606761        1.8258336544       10.9374116863
  H        10.6776647741        1.3199611211        9.4440854161
  C        11.5442041953        3.1709415708       10.1426908454
  S         8.3791245136        6.8085992339        9.9788855467
  C         8.0888240651        5.8840340991       11.4541920924
  H         8.2234595763        3.7871104397       12.0401553965
  C         9.6390483630        5.6259204459        6.7258550802
  H         9.9497403147        2.0184979528        6.9883926176
  C        10.2438823515        3.7214542521        5.6978103184
  H        11.3873271255        4.2205999520       10.2429708051
  H        12.0463866826        3.1818875438        9.1392429726
  C        12.5589728874        2.8211474128       11.2068288675
  C         7.6119820352        6.5761278485       12.7224220654
  C        10.1979911605        5.0650799845        5.5755235372
  H         9.5530885780        6.6796366640        6.6607276470
  C        10.8041683593        3.2791004963        4.5477339526
  H        13.5342046920        3.3334674807       11.0808708013
  H        12.8019395596        1.7865876351       11.0458865762
  C        12.0966093274        3.2276695731       12.5692398367
  C         7.7847756891        7.8763368082       13.0571266727
  C         7.2724819309        5.6625410419       13.8481582080
  C        10.6087624977        5.7009538786        4.3703823652
  C        11.0034107154        4.3881925598        3.7540862294
  S        11.1010827345        1.7809627593        3.7659361354
  H        12.6824793541        4.1049381281       12.7681485296
  H        11.1183422730        3.5628214422       12.5901970509
  C        12.2708325326        2.2184511685       13.6738975571
  N         8.0602685409        8.8847209859       12.1467490454
  C         7.5193083089        8.4642636414       14.2942638742
  C         7.0485448979        6.2226076012       15.0975521510
  H         6.7685904043        4.7411060119       13.6091976889
  C        11.8776793019        6.5336242369        4.6063844654
  C         9.5109708432        6.4736032134        3.5519658995
  C        11.4429205926        3.9858818856        2.4601866040
  C        11.4888468814        2.6146302236        2.3105574034
  H        13.1826188940        1.7152173820       13.5428460562
  H        11.4626513431        1.4887546736       13.5261307906
  C        12.0870856038        2.9786229662       15.0547974783
  S         8.1699495033       10.2711323156       12.9682990338
  N         7.8370600378        9.8117765828       14.4510029438
  C         7.1396530412        7.6706627237       15.3761350751
  H         6.6585558755        5.4499528778       15.8095769210
  H        11.6622366144        7.5792482948        4.8032469202
  H        12.3824607565        6.7200459724        3.6430040734
  C        12.9318985675        5.8417224196        5.5363875317
  H         9.0284357760        7.1674574848        4.2247290449
  H         9.9197075943        7.1293097389        2.7884610720
  C         8.3531043598        5.5652885330        2.9460727185
  H        11.6225268775        4.6642293982        1.6699085194
  C        11.6727917725        1.8559888874        1.0393825703
  H        12.6357891959        3.9153377912       15.0509648028
  H        11.0547862628        3.1964605981       15.0379259473
  C        12.5234457892        2.1818462293       16.2976177900
  C         6.9158990741        8.3735807166       16.5684252493
  H        12.4576316056        5.4873586839        6.3825418564
  H        13.3529501318        5.0037011536        5.0529104851
  C        14.0171506634        6.8755576053        5.8580947555
  H         7.8061789845        5.2036475444        3.8134087979
  H         8.7294858477        4.7801847298        2.2355022519
  C         7.4358035681        6.3392971511        2.0541886882
  C        11.8025768515        0.4180099427        0.9212079176
  C        11.6545319329        2.6107618451       -0.2298900022
  H        13.1566826942        1.3936863776       15.8678773710
  H        11.5868411106        1.8289469289       16.7434614255
  C        13.2028264730        2.9574226046       17.4107430637
  H         7.1598689685        9.4557927768       16.5630158344
  C         6.7563759681        7.9674087170       17.8864186504
  H        13.4708324871        7.6760974689        6.3001312017
  H        14.3964884871        7.2530878427        4.9102811834
  C        15.1695167300        6.3442664443        6.6849915141
  H         7.4262735357        7.3702125963        2.3591046193
  H         7.8014262899        6.2421985698        1.0441312286
  C         6.0386547288        5.7562009719        2.1236532258
  N        11.7891088419       -0.4998891458        1.9820933535
  C        12.0984677477       -0.1544470765       -0.2659316269
  C        12.0618256729        2.0067656962       -1.4061658642
  H        11.5955219518        3.7224092266       -0.2212184297
  H        13.7367313019        2.3501481354       18.1269725123
  H        12.4790114720        3.5061268470       18.0256787731
  H        13.8816864237        3.7442162343       17.0062907691
  S         6.6185850362        6.3173536018       18.4255394152
  C         6.6273960028        9.0300273260       18.8917394442
  H        15.7370321606        7.1667027817        7.2110969390
  H        14.8359007245        5.6925810416        7.5156077820
  C        16.1439856048        5.5434973591        5.7435828630
  H         5.9643787480        4.9356883183        2.8147519496
  H         5.9068263913        5.3513117419        1.1158045729
  C         4.9456005274        6.8523876659        2.2976331725
  S        11.7358733417       -2.0040288716        1.4013067787
  N        12.1666856328       -1.5509867938       -0.1532994890
  C        12.2647852596        0.5121403218       -1.4884390969
  H        12.1116352716        2.5136060311       -2.3457031839
  C         6.2692117491        7.0583023373       19.9998519468
  N         6.4335298840        8.3871480756       20.1131073156
  O         6.5724005010       10.2189598592       18.6748732266
  H        15.5921560673        4.6657458658        5.4289840967
  H        16.3311902283        6.1151640884        4.8309972136
  C        17.5118088436        5.0756717507        6.3342524779
  H         3.9797341508        6.4774279678        2.4375033476
  H         5.1197471117        7.3635080399        3.2689074032
  C         5.0382819693        7.8223285228        1.1075401376
  C        12.6415807821       -0.2293476004       -2.6669633665
  S         5.9259689497        6.1936956505       21.5045362501
  C         6.3234764156        9.1038649374       21.3986415734
  H        17.2635631154        4.4907254489        7.1561405974
  H        18.1653686659        4.5071634075        5.6435789467
  C        18.4073395996        6.2654523207        6.6873657775
  H         4.9062877176        7.4351513595        0.1064691498
  H         6.0353658061        8.1971419008        1.0723610049
  C         4.0514914174        8.9740447001        1.1428984129
  H        12.3275336200       -1.2712453240       -2.6842678775
  C        13.1278172690        0.2239220192       -3.8687752602
  H         5.4179227840        8.7888251880       21.9657294081
  H         6.0087597837       10.0687585491       21.1566063056
  C         7.6820756783        9.0361169409       22.1471321838
  H        17.8753176651        6.9404960560        7.2885706824
  H        18.6883056096        6.8734737525        5.8050545583
  C        19.6249925592        5.7609910348        7.2756332662
  H         4.2098972800        9.6477008044        0.2715370172
  H         3.0123612999        8.6168225130        0.9791757774
  C         4.3131147686        9.8922555557        2.3337804952
  S        13.5420407026        1.8102261416       -4.3111339416
  C        13.3552265922       -0.8132235318       -4.9323772452
  H         7.8282947887        8.0731296421       22.5284257907
  H         7.7387529532        9.6320095919       23.0107993200
  H         8.5214621362        9.2491726698       21.5089445703
  H        19.4162004071        5.4652049367        8.2505291116
  H        20.0543813864        4.9486891431        6.6887204866
  H        20.3932284698        6.5436131262        7.3933879783
  H         5.3267208173        9.9903469388        2.6457565119
  H         3.9470388749       10.8791963058        2.1367110384
  H         3.6851644964        9.5778013311        3.1611214207
  C        13.9966405463        1.1482355743       -5.9401778778
  N        13.9350345569       -0.1871710685       -5.9684815529
  O        12.9749637252       -1.9496710984       -4.7870800888
  S        14.4235307379        2.0470382519       -7.3199649337
  C        14.1109618309       -0.9802479615       -7.1648244887
  H        14.3432668568       -1.9573679061       -6.7933642735
  H        14.9510464304       -0.6459605760       -7.6958195348
  C        12.8669243646       -1.0003378953       -8.0532402812
  H        12.8764926313       -1.8140752741       -8.7152934973
  H        12.8693066604       -0.0930327264       -8.6600471123
  H        11.9750979521       -1.1757197877       -7.5095102049
  H        -2.5893378180       15.1660379701       15.4309789744
  C        -2.7720245157       14.1372779877       15.9044318305
  H        -3.8263248805       14.2440244717       16.2460997026
  C        -1.8313401134       14.1293675604       17.1098807512
  C        -2.5718850439       12.9962570333       14.9332061800
  C        -2.5861545771       13.7471690705       18.4214220543
  H        -0.9334553598       13.6022413085       16.8554833128
  H        -1.5403880485       15.0872035535       17.2237180187
  H        -2.3305211074       12.0610680607       15.5071243735
  H        -3.5523886381       12.9706593102       14.4107129231
  H        -1.7481314893       13.0366591094       14.2379328345
  C        -1.5858076348       13.7944961664       19.5850529716
  H        -2.7263280340       12.6225964979       18.2507557280
  H        -3.5269763865       14.3130038956       18.5686344371
  C        -2.1692943417       13.4354318957       20.9226090595
  H        -0.7724664647       13.1496801942       19.3890553926
  H        -1.1953511476       14.7992563482       19.6073386813
  C        -1.1254172543       12.7725864101       21.8212099548
  H        -2.9762632430       12.7632941719       20.7295050162
  H        -2.5209710639       14.1677630845       21.5536991867
  C        -0.0332436949       13.7717773299       22.1893129319
  H        -1.6003521615       12.4155997272       22.7480153201
  H        -0.7251568392       11.8639705014       21.3323114565
  C         1.1632612189       13.1573105058       22.9314381410
  H         0.2840367519       14.2321798385       21.2456898681
  H        -0.4466164131       14.6008886746       22.7426393984
  C         1.5848057800       11.8582681044       22.2593603991
  C         0.7442442672       12.4287061068       24.2511023483
  C         2.3127927326       14.1621765924       22.9720150452
  C         1.3391283658       10.7564117607       23.0581720951
  C         2.0141305766       11.4300695926       21.0135266956
  C         0.7851850795       11.1065292948       24.2759309880
  C         0.3129066639       13.0229943578       25.4699799261
  H         2.4667538730       14.5220270473       21.9097920364
  H         2.0571807635       15.0073119176       23.6356964317
  C         3.6703941351       13.5222558313       23.4004856406
  S         1.8768047176        9.2450105325       22.3293886559
  C         2.3032989272       10.1188569645       20.9287236994
  H         2.0346123543       12.1541442599       20.2590643047
  C         0.4278754579       10.4254225245       25.4058696046
  H         0.2740473130       14.1273997023       25.5446577900
  C         0.0595146463       12.2381800823       26.6110871355
  H         3.9855355710       12.5819983629       22.9422567954
  H         3.5016859542       13.3556398811       24.4107530138
  C         4.8628989529       14.5079307749       23.3191751610
  C         2.9081892635        9.4934431484       19.6693611961
  C         0.0776599642       10.9111979654       26.6620152051
  H         0.5134484120        9.4016656041       25.2102541162
  C        -0.2977627475       12.5729395785       27.8692204136
  H         5.5675977233       14.0489737976       24.1259847308
  H         4.5211798542       15.5224972015       23.6752117377
  C         5.5892554545       14.5903149730       21.9571088118
  C         2.9960385146        8.1083715169       19.4035703777
  C         3.3440051027       10.3589459781       18.5510403160
  C        -0.1277735364       10.1882837859       27.9208579588
  C        -0.2987457414       11.4692270951       28.7135613880
  S        -0.6626871796       13.9971152831       28.6708679393
  H         6.2578286357       15.5002856575       21.8596520807
  H         4.7480212248       14.6618625493       21.2783446188
  C         6.4514316207       13.3006507386       21.7543015248
  N         2.7457192421        7.0840946771       20.3180346777
  C         3.1896521222        7.5974858785       18.1305719905
  C         3.6453710707        9.8562155000       17.2734457790
  H         3.3744685737       11.4678774955       18.7498977101
  C         0.9948137637        9.2851493747       28.5255213758
  C        -1.4185143861        9.3465921874       27.8683482800
  C        -0.6898734074       11.8493486769       30.0020003674
  C        -0.8624369468       13.2042896268       30.1698546120
  H         7.5072977032       13.3929919494       22.0874059420
  H         5.9347242685       12.5158692248       22.4258855806
  C         6.5489187273       12.9035992947       20.3141649351
  S         2.8371868559        5.6088349282       19.5322442194
  N         2.9964671904        6.2384992881       18.0510675355
  C         3.4947877008        8.4032400682       17.0655628388
  H         4.0090847587       10.4332479396       16.4307427591
  H         1.5107414518        8.8070840785       27.6641554911
  H         0.5264146314        8.5050908633       29.1240415280
  C         2.0272503549       10.0501858845       29.3717076658
  H        -1.2469247823        8.6279378569       27.0566693215
  H        -1.4003170118        8.8384719676       28.8065846238
  C        -2.6919074359       10.1080142211       27.5408683464
  H        -0.7493130444       11.1138701384       30.7242414104
  C        -1.1364853428       13.9215089126       31.4730187337
  H         5.5105872041       12.5023613794       20.1849150130
  H         7.3428735539       12.2051006755       20.2326956714
  C         6.8884212702       13.9978631043       19.3698863599
  C         3.7639636980        7.8060129922       15.7781138107
  H         2.3715733032       10.9754234007       28.8785069996
  H         1.5089865366       10.3756307717       30.2832204262
  C         3.2249206813        9.2071001994       29.7764542581
  H        -2.5807951557       10.7153605545       26.6168597593
  H        -2.8997113307       10.7345622043       28.3944318393
  C        -3.8702404149        9.2535810621       27.2992887396
  C        -1.1752436540       15.2873257136       31.7049344472
  C        -1.3321456025       13.0490831746       32.6859337480
  H         6.2374598473       14.8537507692       19.3324735007
  H         7.8470980773       14.2371796145       19.7107759168
  C         6.8496706905       13.6513287418       17.9021303479
  H         3.7233715447        6.7299087500       15.6884385482
  C         4.0813481034        8.2816317532       14.4979365619
  H         3.7191023177        8.6771366736       28.9779803142
  H         2.9714122630        8.4169433967       30.5048640592
  C         4.1743323559        9.9798485027       30.6437894697
  H        -3.6239840362        8.5303456747       26.5103886895
  H        -3.9203194988        8.6637740146       28.2332924828
  C        -5.1787884857        9.9856446628       27.2192625627
  N        -0.9341000011       16.2849306621       30.7733483355
  C        -1.5389235873       15.7666330526       32.9389727913
  C        -1.6902986153       13.5307926458       33.8968487304
  H        -1.2317111187       11.9224845418       32.5975694046
  H         5.9347165914       13.0868229416       17.6044576339
  H         7.0011799930       14.4496996622       17.2264867364
  H         7.6587075914       12.9731040712       17.6445021177
  S         4.2752672621        9.9280125331       14.0536764690
  C         4.1034744233        7.3038900269       13.4423051095
  H         4.4114021957       10.9667048602       30.2122795809
  H         3.8237402535       10.1380798395       31.6583568453
  C         5.5885021725        9.3152746440       30.4987893273
  H        -5.2298454375       10.8009597929       27.9651462287
  H        -5.9023858848        9.2997925331       27.6747216933
  C        -5.5054572241       10.3834470886       25.7629183086
  S        -1.1277800599       17.7391599386       31.6005866204
  N        -1.6260196619       17.1610750002       32.9802082244
  C        -1.8703154728       14.9697989491       34.0802605279
  H        -1.8897754862       12.8982257158       34.7703704132
  C         4.7146467455        9.2468395454       12.4710181631
  N         4.5923511315        7.8878460545       12.3370135785
  O         3.6108194381        6.1742673702       13.5024465656
  H         6.4272693386        9.8614591849       30.8933909840
  H         5.8109255374        9.1628890219       29.4926383367
  C         5.7311584605        7.9357885730       31.1940603021
  H        -4.7342774031       11.0752234849       25.4713282232
  H        -5.3493442794        9.5842125692       25.0083699207
  C        -6.8792428129       10.9983212274       25.5155834652
  C        -2.2997937580       15.5624431358       35.3198899758
  S         4.9238730303       10.1606553394       11.0184558882
  C         4.5568723531        7.2097378958       11.0175818224
  H         6.2684977990        8.0021256623       32.1740165491
  H         4.6877134153        7.5488633599       31.2962239589
  C         6.7544584609        6.9909447566       30.5114420960
  H        -6.7623254384       11.4808007055       24.5443468390
  H        -7.1715411612       11.7286120903       26.3250290601
  C        -7.9087827254        9.8461838598       25.4154222664
  H        -2.1236263106       16.6420333297       35.3845105020
  C        -2.8822207974       15.1402573734       36.4257836963
  H         5.3136910308        7.6945830288       10.4781157739
  H         4.9003306830        6.1656941747       11.1979104030
  C         3.1964153289        7.3108918486       10.3681731043
  H         7.7210389204        7.4647226926       30.2517544608
  H         6.3172065320        6.7447898582       29.5823486090
  C         6.9155268347        5.7227051591       31.2761125561
  H        -7.6797314968        9.3020639075       24.4936413687
  H        -7.8374473741        9.2196891064       26.3010415792
  C        -9.3429275582       10.2884513137       25.4503420063
  S        -3.5861193365       13.6338020816       36.7258712424
  C        -3.1422143699       16.1198148698       37.5394321080
  H         3.3282149329        7.8298086802        9.4617671346
  H         2.7317852602        6.3869808488       10.1967103853
  H         2.4951000249        7.8815463749       10.9760203683
  H         7.6207058608        6.0387235930       32.0252399330
  H         7.3156344131        4.8852842533       30.6160114272
  H         6.0618539940        5.3771073442       31.8400535934
  H        -9.6107827692       10.4702137247       24.4545409897
  H        -9.4679483981       11.2524925962       26.0002047231
  H       -10.0148445101        9.5417851186       25.9279535098
  C        -4.1609099078       14.2686610640       38.3088390372
  N        -3.9458226034       15.5516517942       38.4768088900
  O        -2.6227325413       17.1823762128       37.6019919426
  S        -5.1041144732       13.2237179287       39.3541556443
  C        -4.2305186018       16.2116988998       39.7004053718
  H        -4.6104970856       17.2257674782       39.5126982868
  H        -5.1226284441       15.7996762001       40.1685807659
  C        -3.1060892470       16.0839201834       40.7121105922
  H        -2.3255126043       16.8377129769       40.4246909496
  H        -3.4481495339       16.2706529930       41.7701273088
  H        -2.7750555197       15.0296662038       40.6864175733
