352
i=
  H         4.1947061620        1.6659767490       12.4202157232
  C         3.4686467249        2.4312188370       12.6081066456
  H         4.1575154401        3.2929142221       12.7479568519
  C         2.6036427199        2.8332559266       11.3639114855
  C         2.6298625869        2.0870419410       13.7462448244
  C         3.2997519762        2.8936758877        9.9709215851
  H         2.3508366326        3.8181551902       11.6289891983
  H         1.6883614897        2.2699765269       11.2690662104
  H         1.8447748320        2.7803644975       13.9564786951
  H         3.1496815151        2.0435184138       14.7143469689
  H         2.1264037796        1.1050996972       13.5905152229
  C         4.0429625360        1.5790429406        9.5473109901
  H         2.4942896416        3.3008631483        9.2871984643
  H         4.0398845058        3.6667620774        9.9879535022
  C         4.8899067240        1.7375305454        8.2425203486
  H         3.2172945080        0.8922934223        9.3165822118
  H         4.5301167407        1.0038892022       10.3076668771
  C         6.2406829495        2.4273544121        8.4469922599
  H         4.3170456455        2.3129130758        7.5423741341
  H         5.0678493571        0.8432749343        7.7635187402
  C         7.3656390988        1.5276248904        9.0588199864
  H         6.4649452743        2.8369439153        7.4193610813
  H         6.2003191982        3.3830518255        9.0350341961
  C         8.6630626396        2.3301075073        9.3392496993
  H         7.5159928517        0.6498616964        8.3719476527
  H         7.0854049728        1.0220593259       10.0192744899
  C         8.4080479009        3.6475702192       10.0957874528
  C         9.1300972012        3.1109755339        8.1474143651
  C         9.8736458072        1.4831301434        9.9634878648
  C         8.6795616153        4.8050141905        9.3417270682
  C         7.8976892444        4.0573080016       11.2875174428
  C         9.1499498695        4.4333636087        8.0848208770
  C         9.5958006968        2.4934796494        6.9895827047
  H         9.6863714041        0.8756467247       10.8332407762
  H        10.2070297899        0.6926580472        9.3152758128
  C        11.0533652429        2.3665199941       10.3831944345
  S         8.3642036229        6.2623735054       10.1541182164
  C         7.7464941884        5.3754286604       11.4753439488
  H         7.6583880923        3.2040482252       11.9590263120
  C         9.6392635261        5.0627557354        6.9656749045
  H         9.5642326803        1.4513583842        6.9645707755
  C        10.1237348828        3.1094379055        5.9123601942
  H        10.7168695952        3.3376080464       10.8798440149
  H        11.6706952534        2.6271190099        9.4631728788
  C        12.1292926547        1.8454501800       11.2870078448
  C         7.2979495616        6.0502323934       12.7029471150
  C        10.1718642309        4.4151530641        5.8328927640
  H         9.6125711802        6.1152726630        6.9841020173
  C        10.7237794361        2.6805788889        4.7415334246
  H        13.0811255058        2.4705610718       11.1532276504
  H        12.3578295113        0.8328654654       11.1548305240
  C        11.6310938259        2.1492394478       12.6378701235
  C         7.4637050581        7.4227107660       13.0123659691
  C         6.9482726933        5.1696697048       13.8484606268
  C        10.5939355966        5.1065080926        4.5417546098
  C        10.9676205785        3.7434645238        3.9496368641
  S        10.9789016169        1.1696609570        3.9227672432
  H        11.9877529596        3.1146611421       12.8344433939
  H        10.5938044470        2.1549385221       12.8154143679
  C        12.2062413961        1.1411005174       13.6168479461
  N         7.8818518133        8.3641409446       12.1568945614
  C         7.1435196471        7.9125745756       14.2553743046
  C         6.6109560063        5.6338468187       15.0728052637
  H         6.8665304670        4.1226350527       13.5849659130
  C        11.8549610267        6.0401507353        4.6824699067
  C         9.4929561865        5.7964667995        3.7344258243
  C        11.3848191293        3.3841971644        2.7142510694
  C        11.4109769225        2.0331967244        2.5047302976
  H        13.2487872662        1.0558301754       13.5514890823
  H        11.8364149333        0.1631939701       13.2052185878
  C        11.8853134808        1.3697448232       15.0487404679
  S         7.7995220751        9.8026771429       12.8855785863
  N         7.2796443888        9.3103072770       14.3149657765
  C         6.7824666806        7.1391857475       15.3452339180
  H         6.4578511942        4.8757114438       15.8399088781
  H        11.7150399654        6.7438229869        5.5523277791
  H        11.8477610461        6.6462369373        3.7367838308
  C        13.2105385188        5.2795661035        4.9750101230
  H         9.2282684977        6.6824691555        4.2948283957
  H        10.0343920547        6.0879478161        2.7926290223
  C         8.2755422823        4.9874454837        3.3098489352
  H        11.5889434545        4.2105662094        2.0476870200
  C        11.7082980741        1.3474327451        1.2323664546
  H        11.3124497636        2.2554347722       15.1220953871
  H        11.1804179076        0.6067010870       15.4698180485
  C        13.1464454347        1.4211137425       15.9695456673
  C         6.6039042382        7.8462520969       16.5676326013
  H        13.1333874871        4.7675562596        5.9523457911
  H        13.4187248631        4.5913329542        4.2013985224
  C        14.3943544490        6.2321674180        5.0533369376
  H         7.9021693298        4.4786612698        4.1875922815
  H         8.5918724614        4.2120902929        2.6576192847
  C         7.1967232698        5.7956797900        2.5732577372
  C        11.7649779882       -0.0495959186        1.0183246381
  C        12.1226571121        2.1992896743        0.0694586453
  H        14.0259940647        1.9139795477       15.5124802519
  H        13.4756654832        0.3828436725       16.1399794375
  C        12.8313573528        2.0888694303       17.3375400155
  H         6.6169559829        8.8617036764       16.3956996988
  C         6.3279336239        7.3797817240       17.8248836712
  H        14.1374815267        6.8935894507        5.8845421715
  H        14.4746087144        6.8039889601        4.1713582701
  C        15.7465347788        5.5117302924        5.2955929270
  H         6.9983310493        6.7477409762        3.1075006888
  H         7.7418119437        6.1139450366        1.6632561672
  C         5.9225408069        5.1508055566        2.2492923811
  N        11.4071597885       -1.0815494701        1.9547376979
  C        12.1358147062       -0.5847983193       -0.1676450179
  C        12.3825285455        1.6894185610       -1.2237005581
  H        12.0249845601        3.2736244426        0.2065658665
  H        12.7980022249        3.1198621287       17.2520764810
  H        13.5512953723        1.7858830607       18.0313372564
  H        11.8914568804        1.8007290009       17.7045902736
  S         6.1128649218        5.7574986216       18.3596016813
  C         6.2919057802        8.4409009164       18.8777985452
  H        15.5618687131        4.4722892387        5.0248542440
  H        16.4755593535        5.9106095241        4.5471624755
  C        16.2075090898        5.5246882873        6.7721189586
  H         5.3488879523        5.1846311275        3.1980009132
  H         6.1011483450        4.1258828423        1.7746472758
  C         5.1197843067        5.9477920553        1.2412477944
  S        11.6104197138       -2.5384449035        1.2609670045
  N        12.0782172817       -2.0034262179       -0.1568049453
  C        12.4319416282        0.1463532727       -1.3619676217
  H        12.5159183983        2.4144064895       -2.0154228027
  C         5.8419323237        6.5164840571       19.8553404853
  N         5.8981666233        7.8414250177       19.9985714075
  O         6.4507399101        9.6530748388       18.6502239057
  H        16.1234361564        6.5533540386        7.1182511005
  H        15.3908842529        5.0497760072        7.3622322974
  C        17.6310586571        4.9671894468        7.0533965909
  H         5.7690798368        6.3253167096        0.4764693984
  H         4.5202236524        5.3015991754        0.6801708677
  C         4.3333527948        7.1654825540        1.8859639024
  C        12.7208679940       -0.6342882302       -2.5490348839
  S         5.3773595180        5.6550219542       21.3724493124
  C         5.8321275064        8.5401003972       21.2761826313
  H        17.7108281326        4.7793800346        8.1520862378
  H        17.6712141003        4.0123583506        6.5662561930
  C        18.7125990894        5.8408503697        6.4027761898
  H         4.6520125057        7.6393836930        2.8203543358
  H         3.4265914208        6.7850197403        2.2418236106
  C         3.9541110502        8.3146870701        0.9056755480
  H        12.2212815320       -1.5404602889       -2.5334849322
  C        13.2641520928       -0.3837653361       -3.7911900191
  H         5.0339791887        8.2867642143       21.9942656567
  H         5.4472807911        9.5955261473       21.0683600911
  C         7.2515414486        8.6184816696       21.7779526308
  H        19.5293753946        5.9562444262        7.0967931253
  H        18.3198500878        6.8689351342        6.1857760984
  C        19.2720305616        5.1707738718        5.1102217593
  H         4.2399501439        7.9836502480       -0.0494532341
  H         2.9076147966        8.4304118262        1.0321777334
  C         4.7456728692        9.5585970741        1.2554026123
  S        13.7958975892        1.2044988525       -4.2441829908
  C        13.1817488723       -1.4406502445       -4.8506999050
  H         7.9365297485        8.0040833958       21.2530218327
  H         7.3079066991        8.3982610994       22.8733159535
  H         7.6905243913        9.6184598452       21.6866043995
  H        18.4275244512        4.9948777406        4.4227632462
  H        20.0621544692        5.8019939516        4.7167848289
  H        19.7059915049        4.1628681495        5.2609426101
  H         5.7245448452        9.3909311557        1.7194014865
  H         4.8728621117       10.0641797706        0.3152959455
  H         4.1322402567       10.1829636161        1.8823684647
  C        14.1015451317        0.3757393365       -5.8003648570
  N        13.7235773027       -0.9429661408       -5.9317048412
  O        12.8682367892       -2.6101796443       -4.6588142595
  S        15.1008537043        1.0584313663       -7.0733253349
  C        13.9362574927       -1.7064073398       -7.1442441166
  H        13.8937527428       -2.6817388953       -6.8503105025
  H        14.9061604180       -1.5772200330       -7.5152476211
  C        12.9651898337       -1.3880777934       -8.2485754200
  H        13.0224623811       -0.4495989792       -8.7086980848
  H        11.9542221483       -1.5769073171       -7.8163059010
  H        13.0631940915       -2.0437677393       -9.1527828072
  H        -4.1092002704       14.3295953057       16.6814710786
  C        -3.5080723369       13.5504741937       16.4189703826
  H        -4.0753097149       12.6681642857       16.7560001219
  C        -2.2412827995       13.5946960408       17.2829556683
  C        -3.1317853546       13.3063615783       14.9470936595
  C        -2.4994402489       13.9925164145       18.7191319073
  H        -1.8663126670       12.5698327462       17.2156712577
  H        -1.5482902208       14.2529649043       16.8602155433
  H        -2.8901011298       14.2560078287       14.5214214346
  H        -2.2303040901       12.6746424364       14.8278869989
  H        -3.8489603073       12.7822515556       14.3672142470
  C        -2.2012267775       12.9067383257       19.7249014285
  H        -3.5067607631       14.4443498290       18.7878382584
  H        -1.8487310102       14.8261653577       18.9414669595
  C        -2.2275961901       13.4004488190       21.1687655269
  H        -2.9311072926       12.1277482244       19.4697731074
  H        -1.1931357840       12.5025526330       19.5213717607
  C        -1.3148876899       12.7462318826       22.1620830196
  H        -3.2885815364       13.4537237927       21.5696163185
  H        -2.0306090506       14.4947036471       21.1700221408
  C        -0.0908456096       13.5710694369       22.4294531037
  H        -1.8227884734       12.4598479023       23.0986328739
  H        -1.0400309492       11.8285330026       21.6023100069
  C         1.0900300235       12.7613515252       23.1000814523
  H         0.3768115268       14.1044396728       21.6044136473
  H        -0.3447506085       14.3588443115       23.1286963581
  C         1.4526924909       11.4136594131       22.4123541982
  C         0.6552348752       12.0330628235       24.3046597050
  C         2.3209968114       13.6756701096       23.5149754318
  C         1.2677582393       10.3166002584       23.2136892773
  C         1.8976188508       11.0543079638       21.1941225089
  C         0.7817852393       10.6817917808       24.3988144284
  C         0.1353552783       12.5849350851       25.4795535406
  H         2.4467497974       14.4443050505       22.7351010105
  H         2.0049622337       14.2721066048       24.3787227632
  C         3.6156314306       12.9763320842       23.8760997686
  S         1.6320133638        8.8002871555       22.4261899004
  C         2.1017681428        9.7371567665       20.9885599236
  H         1.9053495753       11.7604538175       20.4336161149
  C         0.4297419614       10.0161009876       25.5701246258
  H         0.1184850411       13.6583541094       25.5611102609
  C        -0.1637534148       11.9259709777       26.6520890425
  H         3.9111115945       12.1691528799       23.2118062540
  H         3.4980774261       12.5552545355       24.9083804231
  C         4.8311859917       13.8246015025       23.9912663300
  C         2.5013801897        9.0875129360       19.6593526676
  C        -0.0151144906       10.6054651940       26.7359126620
  H         0.6675297789        8.9864081636       25.5552008749
  C        -0.7115301103       12.2813616777       27.8006965599
  H         5.4695893334       13.1246353899       24.5223016555
  H         4.6098411734       14.5768165233       24.7133031178
  C         5.4137046377       14.2790544083       22.6629755539
  C         2.4961604626        7.7045540074       19.3029958826
  C         2.9090330335        9.9726665545       18.5326173391
  C        -0.4576830205        9.8421443411       27.9527151733
  C        -0.8238246983       11.1745666545       28.6684937217
  S        -0.9611684408       13.8132065706       28.6021093281
  H         6.1092668308       15.0775451839       22.9843254322
  H         4.7584778602       14.7578044988       22.0001103129
  C         6.1082667855       13.1878377404       21.8504529104
  N         2.0977402272        6.6743215749       20.1217408106
  C         2.9241727370        7.2057744907       18.0580374156
  C         3.2808980981        9.5009982564       17.2913795536
  H         3.1584395527       11.0321994434       18.7176765342
  C         0.6108240072        9.0535299921       28.6836464571
  C        -1.7965717453        9.0255472515       27.5921301338
  C        -1.2387036912       11.5794676350       29.9392948952
  C        -1.2641679459       12.9550469524       30.0641187726
  H         7.0496458700       13.6609781201       21.5002110116
  H         6.4800449556       12.4636897315       22.5026139576
  C         5.1840789567       12.7977287890       20.6605853250
  S         2.3134471751        5.2369027691       19.3683027038
  N         2.7629992790        5.8332891005       17.9147518696
  C         3.1491440555        8.0709396436       16.9447099965
  H         3.5530943440       10.0540686124       16.4551164833
  H         0.8167162463        8.1889998662       28.0335521117
  H         0.2527581053        8.4065846992       29.4684910458
  C         1.9021808752        9.8113273502       28.9246898008
  H        -1.7152058067        8.2614358917       26.8466821371
  H        -2.0529805309        8.5574721613       28.5347567062
  C        -2.9848095803        9.8783557542       27.2004191783
  H        -1.1548658182       10.9042571999       30.7991902994
  C        -1.4859708373       13.7435364512       31.3608039514
  H         4.2028259579       12.7449432996       21.0382476822
  H         5.3329961261       11.8130388389       20.4451433578
  C         5.2825304468       13.7438807658       19.4829775370
  C         3.4200669718        7.5189771151       15.6656446957
  H         2.1629482035       10.2460993636       27.9901832074
  H         1.6546011822       10.5971698072       29.7216054603
  C         2.9737075259        8.9078513490       29.4942763612
  H        -2.7338162368       10.5739155474       26.4185770804
  H        -3.3505830582       10.5023944018       27.9779861003
  C        -4.1621510308        8.9687689769       26.8419352188
  C        -1.5688140861       15.1280677287       31.5345820212
  C        -1.6802330704       12.8592271041       32.5418858784
  H         4.3442477106       13.7638830155       18.8420698447
  H         5.0581773442       14.6975262355       19.8805007443
  C         6.5942739770       13.6782317071       18.7398100853
  H         3.0643587980        6.4776692469       15.5399183431
  C         3.7057069407        8.0333667657       14.3702183969
  H         3.4719739114        8.4132815364       28.6678005582
  H         2.5835157428        8.0208562548       30.0172128997
  C         3.9135107483        9.6226874843       30.4244767398
  H        -3.8426692278        8.3350613016       26.0077252977
  H        -4.4544819027        8.3560950470       27.7384826405
  C        -5.4496472110        9.7922578121       26.6646183442
  N        -1.3137250085       16.1496449957       30.5331803860
  C        -1.7837250196       15.6345800104       32.8112346047
  C        -1.9280052897       13.4069744690       33.8231139081
  H        -1.7246721073       11.8154477907       32.5034220838
  H         6.6920846016       12.6263043130       18.4750409111
  H         6.5006389120       14.3180509435       17.8384897066
  H         7.4235200271       13.8756069053       19.4439916983
  S         4.0789991452        9.6551677117       14.0050267494
  C         3.7371859611        7.0409902484       13.2633176405
  H         3.8939082592       10.6243099523       30.1729566774
  H         3.6018487585        9.5806893537       31.4757353243
  C         5.3419824310        9.1039627651       30.3311728479
  H        -5.0736902538       10.7430096494       26.2021900344
  H        -5.8938309620        9.9069960250       27.6249924442
  C        -6.3812036044        9.0997424749       25.6752928713
  S        -1.4931627121       17.5689925537       31.3401198695
  N        -1.8164121073       17.0427126316       32.7856090621
  C        -2.0324341474       14.8996512245       34.0123239895
  H        -2.0569757920       12.7190660854       34.6081797283
  C         4.1463552689        9.0545585487       12.3489158421
  N         4.1662594184        7.7087747200       12.2103969143
  O         3.7036911889        5.7713880038       13.3334988538
  H         6.0411349198        9.7985957239       30.8263909883
  H         5.5245232783        8.9987468545       29.3487007387
  C         5.4651845805        7.7845682691       31.1054698443
  H        -5.7859473957        8.9641748494       24.7524204694
  H        -6.8055762590        8.1029970920       25.9694538812
  C        -7.4851690305       10.1279539101       25.4547926427
  C        -2.2846957581       15.6479288755       35.2003800277
  S         4.7554390843        9.9605598646       10.9489671625
  C         4.3450376197        6.9853282250       10.9641230055
  H         5.9135414404        8.0312598576       32.1220052420
  H         4.5171527296        7.3048851018       31.1194912969
  C         6.4884395856        6.8802204193       30.3727572237
  H        -7.1432284327       10.6941471238       24.5917293418
  H        -7.6222310068       10.8686626586       26.2070702083
  C        -8.9087385020        9.5449446569       25.1242417423
  H        -1.9584193435       16.6398278175       35.1060050682
  C        -2.7653567159       15.2985285578       36.4342735707
  H         4.9525330878        7.5436945883       10.2449287680
  H         4.9239112261        6.0927280778       11.0472435450
  C         3.0028335811        6.7611965002       10.4080726972
  H         7.3094744187        7.5466091945       30.1568897185
  H         5.9861493253        6.4941891967       29.5240520104
  C         7.0931998335        5.6728989909       31.2231001973
  H        -9.4056319663       10.1706909394       24.3899654337
  H        -8.8290511462        8.6431128494       24.5418146086
  C        -9.7278639590        9.5054616326       26.3976375875
  S        -3.3902025193       13.7279684456       36.8502532610
  C        -2.8419903732       16.3934442182       37.4794165772
  H         2.5145027400        6.0145739371       10.9460380065
  H         2.3081049233        7.5632502680       10.4451201474
  H         3.0177760606        6.4709761182        9.3810721400
  H         6.3278140545        5.2229820099       31.8619355591
  H         7.8799994476        5.9694506004       31.8757655439
  H         7.5190523643        4.8976666728       30.5895771093
  H       -10.7435275545        9.7604134599       26.1448595244
  H        -9.4768466647       10.2217446954       27.1602474146
  H        -9.6583121688        8.5939403897       26.9337041594
  C        -3.7777413104       14.5162615916       38.4125598744
  N        -3.4545974340       15.8203427076       38.5142178855
  O        -2.3627079861       17.4687215200       37.3374121512
  S        -4.5743088253       13.8006046464       39.7548489109
  C        -3.6437851028       16.6326629629       39.7151162863
  H        -3.7326725982       17.6762546985       39.4401791084
  H        -4.5961246936       16.3382973210       40.1037627495
  C        -2.5721888150       16.5722467144       40.8105526564
  H        -1.5960675963       16.1867469437       40.4304907889
  H        -2.2780591324       17.5647932821       41.0986470649
  H        -2.8373942375       16.0016362535       41.7440890469
