352
i=
  H         2.8292796296        1.6165781047       13.6965441945
  C         3.5848056197        1.6001177437       12.9505323441
  H         3.8108241427        0.5599844833       12.7415954612
  C         2.8898807056        2.2106550794       11.7569589805
  C         4.7492462311        2.3367678494       13.5376320028
  C         3.7572240450        2.4388367727       10.5298363486
  H         2.3713418401        3.2299222560       11.9258259808
  H         2.0194824106        1.5982737559       11.4899735837
  H         5.1258646448        1.7909866313       14.4312534669
  H         4.5887361610        3.3868812078       13.8624887538
  H         5.6425996756        2.1736613169       12.9456353382
  C         4.5166168081        1.2900524106       10.0050780923
  H         3.1540565059        2.8409938424        9.6386245590
  H         4.3532932433        3.2648393513       10.7308718548
  C         5.3062125220        1.5002041458        8.6498054460
  H         3.8079755505        0.3965638986        9.9399450367
  H         5.2051862269        0.9426126727       10.7768388606
  C         6.5734836976        2.4087823754        8.8422237743
  H         4.7303034460        1.8557439672        7.7962347022
  H         5.5945597034        0.4708214783        8.3626824058
  C         7.7653343705        1.6439117043        9.4157963633
  H         6.8283856246        2.8124951703        7.8002953935
  H         6.4387146315        3.2834104239        9.4149459837
  C         9.0035085209        2.5703324222        9.6374293038
  H         7.9927259094        0.8528350875        8.6865071643
  H         7.4200476126        1.0960156663       10.2983826527
  C         8.6556422448        3.8884276387       10.2657531669
  C         9.3400871876        3.2233519128        8.3682002098
  C        10.1157460243        1.7470630855       10.3255524677
  C         8.8469257769        4.9724972260        9.4422740635
  C         8.1636028317        4.3301178047       11.5145800975
  C         9.3787862479        4.5666665428        8.3024577090
  C         9.8971274300        2.6168156968        7.2757976795
  H         9.9269984390        1.6668665170       11.3933052817
  H        10.3145521323        0.7636555123        9.9444409108
  C        11.4700124846        2.4551533109       10.2379223558
  S         8.4776893089        6.4524840101       10.2030196117
  C         7.9815014706        5.6537774744       11.6310464864
  H         7.9772163239        3.6321590399       12.2546152469
  C         9.8052241156        5.1643217943        7.1725487952
  H         9.7937297233        1.5526864203        7.1171923325
  C        10.4214973844        3.2263956225        6.1543422641
  H        11.2737039319        3.5160452407       10.5113648937
  H        11.6822264709        2.5133569062        9.1829470755
  C        12.5237931392        1.8962134175       11.1679303135
  C         7.5486445558        6.3167263790       12.9406198893
  C        10.3828365932        4.6012926820        6.0398416615
  H         9.6869937228        6.2167718865        7.0626236619
  C        10.8398201493        2.8115573783        4.9074853147
  H        13.4370176562        2.4559247723       11.0135903211
  H        12.6469648829        0.9183041607       10.7681886937
  C        12.2320549368        1.8388912684       12.6013610962
  C         7.6137986618        7.7161040087       13.2744396368
  C         7.0245002553        5.4388881936       14.0064288113
  C        10.7181141709        5.2428160635        4.7104196215
  C        10.9141330981        3.8910626436        4.0421263868
  S        11.0234821111        1.3270266469        4.1711495590
  H        11.7913890397        2.7760294020       12.7929160211
  H        11.5626466855        1.0459733217       12.8708175776
  C        13.5329056642        1.5925973036       13.4807479466
  N         7.9289159538        8.7218529488       12.3693155539
  C         7.3167615316        8.1851781153       14.5327374014
  C         6.7358662055        5.8821828480       15.2494446311
  H         6.8439400679        4.3831001705       13.8362410414
  C        11.9786343475        6.0429619817        4.8877850722
  C         9.6085879529        6.0716256932        4.0300885734
  C        11.2251138137        3.4466873383        2.7639086690
  C        11.2068209777        2.1101406931        2.6457260553
  H        14.1512883727        2.4851158228       13.6704975511
  H        14.1129762740        0.9558382903       12.7648350749
  C        13.3214944763        0.8994288630       14.8729915640
  S         7.9433548148       10.1065018841       13.1058633842
  N         7.4264816171        9.5640551357       14.5385957420
  C         6.8549947120        7.3698780609       15.5802587237
  H         6.2794054394        5.1844648888       15.9118531601
  H        11.6965995064        6.7673712169        5.6852128927
  H        12.1360142001        6.6071759485        4.0156298466
  C        13.2068362505        5.2535811994        5.4205205616
  H         9.6756282614        7.0915648013        4.5593990762
  H         9.8472855034        6.2546700212        3.0204037867
  C         8.2158857746        5.3915734298        4.0207689234
  H        11.4244975944        4.1776892076        1.9791730495
  C        11.3769749811        1.3472443166        1.3143799534
  H        12.4994415523        0.1633919612       14.8865153825
  H        14.2329608481        0.2611733313       15.0691016366
  C        13.1418429583        1.9757859738       15.9888425044
  C         6.7206587345        7.9746778465       16.8806276142
  H        12.8779011095        4.3882619302        6.0873155339
  H        13.5194685583        4.6492765670        4.5753798021
  C        14.3512719988        5.9609194216        6.1166680651
  H         7.8066439255        5.3072547631        5.0268456796
  H         8.3137223647        4.3387991456        3.7663068489
  C         7.2636480793        6.1276925976        3.1113401322
  C        11.3895508862       -0.0332373280        1.1454934879
  C        11.6429961418        2.1138637152        0.0399589639
  H        12.6302768759        2.8942176615       15.6198836761
  H        14.1484736962        2.4494718092       16.1157824155
  C        12.5537103429        1.5010099540       17.3686948608
  H         6.7350772783        9.0756062274       16.9082830969
  C         6.3281999876        7.4775100352       18.1373332157
  H        13.9011192692        6.5671674861        6.8974278744
  H        14.7954425160        6.6204676408        5.3760071297
  C        15.3282690410        5.0118964732        6.7614312818
  H         7.0865360774        7.0054762877        3.7238800043
  H         7.7368078316        6.4806165547        2.1899451923
  C         5.9293236487        5.3589942339        2.8076228537
  N        11.2747439079       -0.9054861684        2.2202932523
  C        11.6293570000       -0.6595775195       -0.0117385289
  C        12.0598117237        1.5005049137       -1.1565562505
  H        11.6252841593        3.1914719943        0.1247098156
  H        11.5011383448        1.4354396853       17.4365102463
  H        12.9240062136        2.1289797872       18.1854421144
  H        13.0832454543        0.4841242592       17.5753159121
  S         5.8365500058        5.9172394750       18.6388202383
  C         6.4333104693        8.4707902043       19.2524074601
  H        15.0395584589        4.9970145523        7.8228153001
  H        15.2272779388        3.8935434293        6.4146558987
  C        16.7583184340        5.4360121498        6.5352797068
  H         5.4680845146        5.1102977470        3.7717722707
  H         6.2165375544        4.3656990987        2.3130545373
  C         4.8528214203        6.0168802282        1.9294196486
  S        11.2427695588       -2.4584726294        1.7185658047
  N        11.5627846027       -2.0889947769        0.0663500644
  C        12.0935107191        0.0067765376       -1.1695017012
  H        12.3450825401        2.0587352572       -2.1067115705
  C         5.7087220539        6.5804923059       20.3066561933
  N         5.9280560382        7.9022056147       20.3789451667
  O         6.8553086608        9.6205704186       19.0751677690
  H        17.1966573886        5.0689214957        5.5819731782
  H        16.7946823988        6.5297766157        6.5990849127
  C        17.7324847188        4.8665563213        7.6892387762
  H         5.2928958837        6.4956611915        1.0962407381
  H         4.3194824954        5.2071990826        1.5321876647
  C         3.9020386141        7.0085065713        2.7594255256
  C        12.5145418075       -0.7284847851       -2.2696009251
  S         5.0541342280        5.7599338718       21.7478352883
  C         5.8971010409        8.6175680825       21.6696903709
  H        17.1844342667        4.7375714184        8.5826408011
  H        18.0530375744        3.7911285713        7.5994065422
  C        18.9615145501        5.7487908840        7.9074396896
  H         3.5698454429        6.5057953361        3.6963088588
  H         2.9948595900        7.2131726751        2.1498045763
  C         4.5696569704        8.4167754747        3.0872075551
  H        12.3823910910       -1.8022398031       -2.1516977780
  C        13.1065459503       -0.4578939182       -3.4563439726
  H         5.0538592610        8.2214619524       22.2899705820
  H         5.5592794788        9.7250392843       21.5459322623
  C         7.2995071512        8.5421661524       22.2943582165
  H        19.5371121457        5.4953704636        8.7867437176
  H        18.6040680642        6.7603854219        8.0554303272
  C        19.7782605586        5.6728504009        6.6395510503
  H         4.2152617593        8.5955426095        4.0617203425
  H         5.6388491832        8.3284735720        3.1109388073
  C         4.1811496537        9.4352104618        1.9081957604
  S        13.4672574289        1.1351963421       -4.1235257210
  C        13.3374424174       -1.5082674198       -4.4759783910
  H         7.3480851787        7.8251713538       23.1026848458
  H         7.6161783203        9.4927734473       22.6786264082
  H         8.1154831144        8.2970113812       21.5579428708
  H        19.7513334621        4.7196536568        6.1194507489
  H        19.4407747240        6.3786192883        5.8899312658
  H        20.8268786941        5.8838308935        6.9319694366
  H         4.8027121639       10.3005393029        2.0709067181
  H         4.4811824012        9.0826380319        0.9666509699
  H         3.1288121610        9.8064288545        1.7453716713
  C        13.9504914826        0.3580091951       -5.6303256590
  N        13.7594402266       -0.9475066299       -5.6063774511
  O        13.1454572505       -2.7028097746       -4.2619618091
  S        14.5382947029        1.2182052653       -7.0667600172
  C        14.0701113313       -1.7481404899       -6.8219609434
  H        14.1532930786       -2.8037526937       -6.5806717938
  H        15.0419638125       -1.4350605445       -7.2446246073
  C        12.9346184231       -1.6555319595       -7.9017278396
  H        11.9288128179       -2.0379597367       -7.5751969989
  H        13.1485724456       -2.3972744130       -8.6772895453
  H        12.8770079903       -0.7065143237       -8.4474821253
  H        -3.8705636178       12.6695993956       17.1575340025
  C        -2.8651217948       12.9996678012       17.3649177549
  H        -2.2998707028       12.1024798614       17.5577460822
  C        -2.9493566164       13.9694664009       18.5216227257
  C        -2.2570441398       13.7878796433       16.1174787365
  C        -3.3494130083       13.2866687926       19.8177989787
  H        -2.0191293592       14.5196748349       18.6333238124
  H        -3.6227902528       14.7556704264       18.2860679975
  H        -2.6644066218       13.4346958201       15.1462670852
  H        -2.4715693582       14.8519531192       16.1677441367
  H        -1.2049722936       13.8023896867       16.0255286245
  C        -2.1787240632       12.9599375954       20.7371272718
  H        -3.9107372865       12.3144362547       19.6012922955
  H        -4.0912627581       13.9059036891       20.3222313468
  C        -2.6184546440       13.0379408670       22.2558090902
  H        -1.6027301073       12.1368983777       20.4625907536
  H        -1.5181428275       13.7941487588       20.6038162463
  C        -1.4548102087       12.4521873660       23.0673749911
  H        -3.4864059187       12.3861589469       22.3601873599
  H        -2.8622823110       14.0453286975       22.5052086135
  C        -0.2339941707       13.4153692199       23.1858751835
  H        -1.7320462047       12.1463605563       24.0750378274
  H        -1.0960158337       11.6198140500       22.4852878116
  C         1.0162503645       12.6835245228       23.6680789443
  H        -0.0036059217       13.8389080190       22.2083400218
  H        -0.5014136121       14.2082016252       23.8935802573
  C         1.3658232084       11.3895162693       22.9507906234
  C         0.7368019123       11.9675210283       24.9345236824
  C         2.2747745876       13.5951577931       23.5913544311
  C         1.2317580592       10.2324849713       23.6976385694
  C         1.7058437586       11.0885301933       21.6155248492
  C         0.8200553365       10.5978730390       24.9855120275
  C         0.3245923493       12.5770455481       26.1237319217
  H         2.3100541424       13.8905550225       22.5520532953
  H         2.0480338138       14.4806609831       24.1437425506
  C         3.5550009805       12.9456554034       24.0434472374
  S         1.5727109139        8.7582254840       22.9388726642
  C         1.9427450966        9.7226010199       21.5464463542
  H         1.7599881114       11.8851962573       20.9104529569
  C         0.5515100582        9.9107070996       26.1583677191
  H         0.1147931509       13.6627327477       26.1490004741
  C         0.0834202856       11.8825336329       27.2688983662
  H         3.9298983911       12.1272222957       23.4187307437
  H         3.2810772537       12.4324727443       24.9747802792
  C         4.6548966532       13.9222363633       24.3863893765
  C         2.3759087184        8.9687250937       20.2618043497
  C         0.1531667302       10.5441040734       27.3576878736
  H         0.6798511752        8.9043431200       26.1241722813
  C        -0.3069278863       12.3131047858       28.4554434217
  H         5.3282610427       13.4007213619       25.0777732475
  H         4.2860749035       14.8396644252       24.8591284969
  C         5.3566313001       14.5019598910       23.0871348517
  C         2.3668651133        7.5799539399       20.0413984609
  C         2.8342020677        9.7393796069       19.0722667140
  C        -0.3471733153        9.8563555986       28.6814381487
  C        -0.5542608481       11.2462583264       29.2680837267
  S        -0.6570915271       13.8602729882       29.2029567742
  H         6.0725748893       15.2485302614       23.4499534490
  H         4.5650809063       14.9913420024       22.5166168337
  C         6.2485038590       13.6624777732       22.2239723524
  N         1.9479736851        6.5551902248       20.9346786844
  C         2.6640253702        7.0180925493       18.8123122693
  C         3.1731999252        9.1711478180       17.8728348249
  H         2.9499911291       10.7706187479       19.1133245006
  C         0.6365396704        8.9654551397       29.3907145092
  C        -1.6918495156        9.1801250179       28.3937023178
  C        -0.9724258753       11.6666874240       30.5309997169
  C        -1.1149579509       13.0084918909       30.6315775990
  H         7.1942060117       14.2556827503       22.0727792823
  H         6.4656203452       12.6745983726       22.6797125885
  C         5.6093853694       13.3533331242       20.8632772936
  S         2.0628816641        5.0905983598       20.2039979703
  N         2.4808058918        5.6044222988       18.7281427967
  C         3.1032362392        7.7151942656       17.6608474785
  H         3.6824390266        9.8380612648       17.1400699689
  H         0.8855320109        8.0227072952       28.8878958837
  H         0.3622082404        8.7381200470       30.4473055562
  C         1.9429117459        9.7959782605       29.4455996106
  H        -1.6090873900        8.4560595894       27.5560675550
  H        -2.0320175322        8.6075334377       29.2848836982
  C        -2.9422747438       10.0301903888       28.0750028750
  H        -1.0160285253       10.8806439760       31.3227112739
  C        -1.5850214085       13.7318461444       31.8375541852
  H         5.0776324108       14.1618833337       20.4078818708
  H         4.9880366237       12.4940399326       21.0749039217
  C         6.5139319661       12.7336851306       19.8255376464
  C         3.1885792722        7.0918140188       16.3707481561
  H         2.2676644485       10.0079662383       28.4541289188
  H         1.8252707445       10.7682652007       29.9065607781
  C         3.0600775561        9.1974618598       30.1708775462
  H        -2.6939594078       10.7606495180       27.3880935737
  H        -3.1901688987       10.3956971683       29.0597313864
  C        -4.1510758569        9.2272441938       27.6321637897
  C        -1.4697837110       15.1159880226       32.0490662527
  C        -1.8741290698       13.0154591821       33.1538533041
  H         7.2388524940       13.5226333008       19.4422098150
  H         7.1806796183       12.0053522504       20.3042327770
  C         5.7517689459       12.3944004018       18.5670172988
  H         2.9052699993        6.0631816905       16.3284574152
  C         3.4612381318        7.5363409711       15.1176826474
  H         3.4174401544        8.2677679641       29.7034184198
  H         2.6818829073        8.9614626175       31.1852184360
  C         4.2828635453       10.1410054422       30.4130989372
  H        -3.9016780106        8.6271445881       26.8013149232
  H        -4.4000846361        8.5332192010       28.4765245139
  C        -5.2858455751       10.1606801966       27.1454016567
  N        -1.0417741947       15.9946343149       31.0662935059
  C        -1.8506374885       15.7656470531       33.2068872528
  C        -2.1649388370       13.6435665397       34.3535783168
  H        -1.8228033213       11.9364314499       33.1928860947
  H         5.4468435452       13.3543483338       18.0458517303
  H         6.4503950215       11.8368832228       17.9610632719
  H         4.9559941521       11.7910571585       18.7142162772
  S         3.8095458683        9.1572330138       14.5827623745
  C         3.4452159928        6.5312604851       14.1091695494
  H         4.5322678592       10.7280212282       29.5230641981
  H         3.9607292228       10.9824161381       31.0898006138
  C         5.6876298664        9.5747425270       30.8173910694
  H        -4.9565170950       10.8161917493       26.4154571794
  H        -5.5431468317       10.7306327696       27.9863676850
  C        -6.4601482698        9.4078173117       26.4628095905
  S        -1.2552266545       17.4827301786       31.6485331924
  N        -1.8530213207       17.1785039453       33.1050542374
  C        -2.2506810324       15.0891204660       34.4025561460
  H        -2.3103766130       12.9739157286       35.1871748584
  C         4.0963929558        8.3813823523       13.0272327285
  N         3.8964670372        7.0409106684       12.9710848504
  O         3.1377983184        5.3412300364       14.2590193655
  H         6.1085179266       10.2009586442       31.6854394813
  H         6.3714827419        9.8174090322       30.0042934824
  C         5.8127645750        8.0924883895       31.2595820093
  H        -6.0192849522        8.7759394104       25.7152171498
  H        -6.9973333313        8.7927621460       27.1999954800
  C        -7.4237924091       10.3193457228       25.6647461878
  C        -2.3758311826       15.9473021708       35.5236725594
  S         4.6846505678        9.2307181574       11.5650291659
  C         4.0037558775        6.2896132106       11.6884920755
  H         6.4199744364        8.1069550488       32.1621834326
  H         4.7857105723        7.7176472345       31.6040809463
  C         6.6370844562        7.2371132460       30.2461620943
  H        -6.8319450505       10.8707238216       24.9925697201
  H        -7.7947464450       11.1041341571       26.3420622120
  C        -8.6420236695        9.6957545535       25.1699823358
  H        -1.9755184469       16.9046087303       35.4223096538
  C        -2.9738839844       15.8187402652       36.7652550138
  H         4.6592858445        6.7841948379       10.9321316846
  H         4.2774267597        5.2559490483       11.8733067353
  C         2.6012347199        6.2048897947       11.0427793821
  H         7.6603056113        7.5462533025       30.3839475193
  H         6.2764079503        7.5422330987       29.3019774032
  C         6.7649795155        5.6976175136       30.5996517427
  H        -8.9843307100       10.0690025228       24.2737702497
  H        -8.4263638009        8.6139311666       24.9804225809
  C        -9.8097517044        9.8360794196       26.1562525916
  S        -3.8153105587       14.5032839920       37.3697556932
  C        -2.8348630112       17.0245158820       37.6098400766
  H         1.7903558349        6.1475737396       11.7738656264
  H         2.4272241288        7.0935137166       10.4949009964
  H         2.3859894912        5.3832780696       10.3503668386
  H         5.8418100635        5.1904735442       30.2760922321
  H         6.8341953922        5.6199867221       31.6890762358
  H         7.5858521199        5.1224269858       30.2805828829
  H        -9.9867112073       10.8987562455       26.4114052740
  H        -9.3980098995        9.5165094158       27.1429768406
  H       -10.7174400455        9.2724263922       25.8388608024
  C        -3.9846383034       15.4943442067       38.8223253135
  N        -3.5852364648       16.7821382539       38.7216789553
  O        -2.2013102974       18.0716476153       37.3711367024
  S        -5.1216790624       15.0571998190       40.1844813817
  C        -3.6681957519       17.7309232247       39.7781951409
  H        -3.7619149281       18.6370873439       39.2032334191
  H        -4.5620422584       17.7735730097       40.3915850828
  C        -2.3857832236       17.6539523696       40.6367828130
  H        -2.4072214151       18.4711329966       41.4329855651
  H        -2.3832529931       16.7628076543       41.2335145573
  H        -1.4976064577       17.7124999255       39.9441009662
