352
i=
  H         4.5364479176        1.6638717074       12.4707802919
  C         3.9438845311        2.5923301108       12.5667989232
  H         4.6500557702        3.4482585806       12.6083909337
  C         3.0219058970        2.7216318232       11.3399518948
  C         3.1850001459        2.4488784870       13.8840762508
  C         3.8424012170        3.0778196293       10.1069105810
  H         2.2925797984        3.4402077980       11.5366908337
  H         2.6059309319        1.7089596685       11.1268846816
  H         2.2956975770        1.8803261401       13.7326779746
  H         2.7097206968        3.3689525945       14.0830540561
  H         3.6601423793        2.0418728775       14.8708479325
  C         4.4179034454        1.8403463361        9.4535409298
  H         3.1380669292        3.5731605450        9.4284804113
  H         4.6594184010        3.7176054188       10.4385591047
  C         5.5242096748        1.9745036927        8.3817273423
  H         3.6388461078        1.2206357834        9.0515755979
  H         4.8383329398        1.1993705944       10.2160377475
  C         6.7333148052        2.7475598230        8.9324577976
  H         5.0266891575        2.4534069166        7.5680341066
  H         5.8613210381        1.0495325066        7.9536059014
  C         8.1107831756        2.1194846820        8.7969574281
  H         6.5388383806        3.6974951523        8.4372505844
  H         6.6511454618        2.8339105086       10.0302563588
  C         9.2577847410        3.1227612442        9.1126023458
  H         8.1111825673        1.6554397576        7.8177942303
  H         8.2330399508        1.2882353154        9.5239736632
  C         8.7386589286        4.3824084184        9.7951048072
  C         9.5944373678        3.8449236242        7.8804540159
  C        10.2897259451        2.4533091753        9.9083744378
  C         8.8614918590        5.5217781047        8.9881197509
  C         8.2708076040        4.7247990428       11.0987483853
  C         9.4488315743        5.2187779760        7.7979231804
  C        10.0699340023        3.2070093087        6.7462952069
  H         9.9363872232        1.9282530264       10.7979582384
  H        10.7060403245        1.8096504745        9.1696528179
  C        11.3827145894        3.4008236029       10.4726967054
  S         8.2744150051        6.9916318473        9.7018549937
  C         7.9635751543        6.1011177188       11.1640372786
  H         8.3923192741        4.0417748143       11.9037553334
  C         9.9421790173        5.8321101856        6.6889172239
  H        10.0673601247        2.1298073804        6.6918258818
  C        10.3153828927        3.8131779935        5.5586123639
  H        10.9499738000        4.1933480477       11.0901995260
  H        11.9547372750        3.9773049704        9.7080060912
  C        12.3890684804        2.8036282182       11.4842209983
  C         7.4708067795        6.8011650089       12.4024315714
  C        10.4122958983        5.1684412602        5.5811750615
  H         9.8661374254        6.9144624221        6.7134601495
  C        10.7920001527        3.4164382115        4.3505846833
  H        13.3913475421        3.3980309339       11.5349720049
  H        12.6803026482        1.7286689631       11.3306954707
  C        11.8412465987        2.7439702314       12.9720141965
  C         7.4569612573        8.2043156770       12.6203717456
  C         7.0731771966        5.9832803853       13.5446040759
  C        10.7989451042        5.8455290665        4.3347920038
  C        11.0751878212        4.4861939338        3.5851640319
  S        10.9404002143        1.8965442783        3.6106864765
  H        11.5720296733        3.7306084898       13.2514968971
  H        10.8486521918        2.2168310763       12.9375748074
  C        12.7602760414        2.2990099742       14.0939834578
  N         7.5649315308        9.1650250893       11.6572431840
  C         7.3256643380        8.7291224565       13.9210787641
  C         6.7065660013        6.5591421479       14.7809692671
  H         7.1767379521        4.9285747319       13.5108107329
  C        12.0717933598        6.6949381443        4.3650589027
  C         9.6873606535        6.7249478908        3.6190431250
  C        11.5980826884        4.1025796521        2.3359208683
  C        11.5277066470        2.7488105459        2.2122741327
  H        13.6263160768        2.9975528817       14.0139154470
  H        13.1077981417        1.2663439904       13.9717397017
  C        12.0574171784        2.5308830605       15.3866640507
  S         8.0522917235       10.5323923549       12.4092972079
  N         7.6964117512       10.0324286917       13.9156277782
  C         6.9026527646        7.9664459399       15.0200874339
  H         6.3395765458        5.8816714199       15.6044396330
  H        11.7739167366        7.4720929394        5.0984257339
  H        12.2632427396        7.2366669035        3.4596277400
  C        13.3254265154        5.8415706766        4.7466810334
  H         9.3715541933        7.6033001137        4.2182371877
  H        10.0156756791        7.1498922790        2.7296459790
  C         8.4415065875        5.9104051406        3.2047775478
  H        11.9692765487        4.9438852529        1.6471811322
  C        11.9227118011        2.0085125530        0.9545814426
  H        11.8676704566        3.6053923388       15.3632753012
  H        11.0878047144        2.0107699455       15.3184898070
  C        12.9236619716        2.1160548884       16.5398539647
  C         6.6585991406        8.6100086373       16.3174252365
  H        13.0715364038        5.1402878589        5.5071679604
  H        13.6988872697        5.2754548488        3.8693771027
  C        14.5470122360        6.7013796946        5.1243694569
  H         8.0215694814        5.3455784606        4.0584720662
  H         8.6906086276        5.1213398554        2.5173207653
  C         7.3690895710        6.8163849950        2.7371055760
  C        11.8401315820        0.5902920960        0.7051762707
  C        12.0316482840        2.7653551344       -0.3992331043
  H        13.7383981458        1.4369223018       16.2789485151
  H        12.2080015985        1.5002626682       17.1627785186
  C        13.5685335947        3.2327190276       17.3710988203
  H         6.9756610147        9.6521087099       16.3145558678
  C         6.4649958619        8.1713816353       17.6122650189
  H        14.2657047981        7.0979678248        6.0019491640
  H        14.7075157642        7.5808587968        4.5572851125
  C        15.8906715780        5.9222535688        5.3026781570
  H         7.1331431457        7.3180610398        3.6470707502
  H         7.6650792978        7.5875157743        2.0905693382
  C         6.1461528148        6.1424482357        2.1908258323
  N        11.5682963051       -0.3009801674        1.7399115141
  C        12.1471804480       -0.0733370364       -0.4799600453
  C        12.2520968142        2.0608575336       -1.5648688730
  H        11.9559995063        3.8377364828       -0.4609854413
  H        14.1309975605        3.7739695261       16.6967656295
  H        14.0793242875        2.9121697859       18.2467551144
  H        12.7331586684        3.8589803164       17.8326190080
  S         6.1388597485        6.5410555826       18.1712103181
  C         6.5794069288        9.1101818512       18.6891740373
  H        15.7644922042        5.0354207065        4.7078000043
  H        16.6777350634        6.5640193633        4.9268272689
  C        16.1175996056        5.4787778404        6.7627706257
  H         5.7697118261        5.5875139880        3.0741825502
  H         6.3978733871        5.2346612859        1.5722453803
  C         5.0115916319        6.8960734680        1.6381074954
  S        11.6028734724       -1.8001398876        1.1155308152
  N        11.9758403854       -1.4302488806       -0.3601848468
  C        12.4284795902        0.5919683627       -1.6395749417
  H        12.2020032348        2.5675247100       -2.5225686187
  C         5.9516605676        7.2023432608       19.8049574031
  N         6.1108707467        8.5678762340       19.8343302446
  O         6.8447290510       10.2947434698       18.5330993814
  H        15.8329086766        6.2541657145        7.4649036782
  H        15.5415138708        4.5542010589        6.7769701862
  C        17.6072253092        5.0010936989        6.8884718923
  H         5.0787186620        6.8913754051        0.5762800703
  H         4.1387233222        6.2792358761        1.6966389319
  C         4.7181893105        8.2723216961        2.2490799888
  C        12.6674488184       -0.1459982343       -2.8534814318
  S         5.3144537669        6.3595810431       21.1655006566
  C         6.2978950577        9.4602308238       20.9919838184
  H        17.5666251297        4.4126474454        7.8232878013
  H        17.8609167629        4.2175350718        6.2019926819
  C        18.6192326111        6.1597817234        6.7306317563
  H         5.6197272528        8.8135331464        2.1918891089
  H         4.5189666733        8.2791879517        3.3814492438
  C         3.5556078000        9.0271755137        1.6938444777
  H        12.2971440858       -1.1884508417       -2.9608889821
  C        13.2173781737        0.2484736465       -4.0181638096
  H         5.7833406966        8.9811786468       21.9207674014
  H         5.8388244880       10.4432908531       20.9693337893
  C         7.7564833280        9.5007853183       21.4240647182
  H        18.0770650180        7.0786561994        6.9607800237
  H        19.0742804548        6.3242945921        5.7736143867
  C        19.7349911251        6.0273899684        7.7753645329
  H         2.7238083428        8.4605110878        1.3752866776
  H         3.1476329092        9.7103257698        2.5111754133
  C         3.9621037119       10.0364950910        0.5803455752
  S        13.7096025582        1.8915360795       -4.4175501983
  C        13.2941848396       -0.6336829163       -5.1840414124
  H         8.2225802984        8.4729406232       21.5829932923
  H         7.7926562533       10.0714309898       22.3486868282
  H         8.3676300817       10.0544050288       20.7134590627
  H        20.2320595704        6.9603769347        8.0747372584
  H        19.3854055865        5.7104891712        8.7832758557
  H        20.6110622719        5.3640254951        7.3837560044
  H         3.2600601211       10.9005810819        0.6071062839
  H         4.9688919401       10.4415945702        0.6258771441
  H         3.7682359776        9.6412689099       -0.3901840904
  C        14.2020496446        1.2657407430       -5.9760263969
  N        13.9137491501       -0.0075717820       -6.2086091646
  O        12.9109374254       -1.8421878302       -5.1184095069
  S        14.8559540029        2.2602736898       -7.2569680720
  C        14.1560530159       -0.6664796901       -7.4720702780
  H        14.2916995774       -1.6863641128       -7.3736501338
  H        15.1670450257       -0.5926438398       -7.9016351909
  C        13.0601674992       -0.5029855001       -8.5233068905
  H        12.7371797718        0.5258114470       -8.2905527388
  H        12.2733048873       -1.2137839388       -8.4984837601
  H        13.5982751849       -0.4789837936       -9.5368300687
  H        -2.0452923013       15.7863745837       15.8955276847
  C        -2.5946384840       15.0930545766       16.4490337128
  H        -3.5334485740       15.6046373804       16.6378948148
  C        -1.9937816807       14.6859617644       17.7753780643
  C        -2.8070518705       13.8522680864       15.5640018606
  C        -2.9149218119       14.0469339825       18.7472668901
  H        -1.0951257759       14.0014397053       17.6178157057
  H        -1.5637430067       15.5347005075       18.3197941915
  H        -3.2290408060       14.0427760338       14.5645319601
  H        -1.8653095361       13.3396179730       15.4203530800
  H        -3.5270976617       13.2912045902       16.1071736411
  C        -2.1132602199       13.3472608803       19.8486524304
  H        -3.5186231128       13.3992738563       18.1732326069
  H        -3.4866043801       14.8747492752       19.1803264595
  C        -2.4445391734       13.7421224290       21.3187968568
  H        -2.2007267280       12.2447530802       19.7911654347
  H        -1.0833999760       13.6658345013       19.5824457987
  C        -1.4356081384       13.1015274575       22.2332995457
  H        -3.3538589828       13.3960160083       21.5385326018
  H        -2.2993275007       14.8469756402       21.4455859787
  C        -0.2287001375       13.9532269054       22.6575293706
  H        -1.9087332622       12.7551136272       23.1831043111
  H        -1.2556756564       12.1449433421       21.7839618986
  C         0.9179378647       13.1569461583       23.2743049304
  H         0.0578734888       14.5042116826       21.8301450084
  H        -0.6262632166       14.6362843221       23.4091289331
  C         1.2136973398       11.8314860666       22.5764923105
  C         0.5223281159       12.4231063621       24.5898378389
  C         2.2049959873       13.9638433499       23.5515775761
  C         1.1466720237       10.7362027940       23.4143968148
  C         1.6160739685       11.4303788078       21.2460132087
  C         0.6403841864       11.0536150915       24.6717124295
  C         0.0220501644       13.0577456314       25.7903049131
  H         2.1575329768       14.6088373959       22.6393601389
  H         1.9845582982       14.5497596811       24.4337202634
  C         3.4716386045       13.1149113188       23.9308022669
  S         1.4470370332        9.1838384633       22.6322682821
  C         1.9090181994       10.1264904288       21.1943421566
  H         1.7965702360       12.1303619169       20.5344245142
  C         0.2528085499       10.4126459509       25.7980126968
  H        -0.0318530012       14.1359935335       25.7104229467
  C        -0.2757016497       12.3717238520       26.9297200645
  H         3.7279159795       12.2575483865       23.3486310497
  H         3.2310593288       12.5742122936       24.8821426120
  C         4.7421721268       13.8675390243       24.3667631842
  C         2.5530964965        9.5147166714       19.9524546907
  C        -0.2375393835       11.0561348110       26.9621735046
  H         0.3537717516        9.3799024188       25.8111897118
  C        -0.7752493133       12.7674983269       28.1243714871
  H         5.4487812608       13.1223846497       24.8370111259
  H         4.3284233018       14.4452185601       25.1138001148
  C         5.4382520917       14.6001044059       23.1871901752
  C         2.6198999212        8.1632238015       19.6072087869
  C         3.0987793598       10.4172750504       18.9245359780
  C        -0.6297764600       10.3561183444       28.1401393237
  C        -0.8684989468       11.7443515291       28.9709375187
  S        -1.3487589144       14.2513025955       28.8299033915
  H         5.9615502725       15.3508361906       23.6405332478
  H         4.7551873105       15.1526127098       22.5279543186
  C         6.4283839038       13.7112817097       22.3793750515
  N         2.1220031936        7.1925178446       20.4270784507
  C         2.8551145808        7.7783828527       18.3363554722
  C         3.4494233932        9.9676357272       17.6288284237
  H         3.0385946110       11.5193824011       18.9574878162
  C         0.4452568343        9.5062294438       28.7073974638
  C        -1.9150258561        9.5456545007       27.9421023978
  C        -1.3944187002       12.1527411435       30.2427055002
  C        -1.5985122521       13.5012896934       30.3235125456
  H         7.4185152741       14.0905492408       22.5247447049
  H         6.4760410707       12.6837023162       22.7351642479
  C         6.1546025273       13.7352854044       20.8836122940
  S         2.1439393576        5.7704643663       19.5828207037
  N         2.6628950061        6.4056620556       18.1491931556
  C         3.2529531857        8.5887933402       17.2613774260
  H         3.6641023913       10.6497219620       16.7986839091
  H         0.7523249536        8.8715959261       27.9131832405
  H         0.0102980321        8.6878203387       29.3823937349
  C         1.6852522023       10.1316206678       29.3352795595
  H        -1.6204510804        8.8093318807       27.2300312327
  H        -2.0754302304        9.1371358112       28.9147766255
  C        -3.1210513930       10.4712006466       27.5168272898
  H        -1.5671007907       11.4223390159       31.0075782480
  C        -2.1023814470       14.2887215900       31.4593151674
  H         5.8475140151       14.6824745536       20.7070735239
  H         5.2920827060       13.1861227766       20.6024734841
  C         7.3801965239       13.3238769616       20.0864340889
  C         3.4983063186        7.9353131797       15.9892364336
  H         2.1257319770       10.7688429529       28.6236496668
  H         1.3524291465       10.6886633554       30.1805433510
  C         2.5945592666        9.1476331281       30.1169293485
  H        -2.7923290471       11.1996730345       26.7115055084
  H        -3.4959705241       11.0664077834       28.3817094705
  C        -4.2622343676        9.6527635251       26.9883918532
  C        -2.1265474047       15.6558549809       31.6319055124
  C        -2.3223612951       13.4898726161       32.7114368735
  H         8.1749467960       14.0486750442       20.2676208022
  H         7.6074039215       12.3044392220       20.4022955277
  C         7.1169400352       13.5152018594       18.6328316058
  H         3.8320768373        6.8780712425       16.1408246341
  C         3.6417768641        8.2574472945       14.7024155617
  H         3.0086265019        8.4788775530       29.3562974917
  H         2.0825146677        8.4443930239       30.7119744226
  C         3.7123702903        9.8542704561       30.8995500592
  H        -3.9178899119        9.2112137904       26.0507959813
  H        -4.4880956292        8.8563172732       27.6845036761
  C        -5.4359210367       10.6252586238       26.6370712981
  N        -1.8395646222       16.5767553669       30.6876523171
  C        -2.3955467382       16.2885090560       32.9046863472
  C        -2.6557148220       14.0542966893       33.9661884037
  H        -2.2588880781       12.4113622666       32.6622588502
  H         7.7610717204       12.8229381436       18.1263343207
  H         6.1360644612       13.3605400241       18.3641585909
  H         7.4678378607       14.5250545229       18.2548628875
  S         3.7785350159        9.9081196473       14.1555865698
  C         3.7543870921        7.2353198060       13.6838079823
  H         3.8407089001       10.9021652074       30.5787706383
  H         3.3968159518        9.8642811843       31.9294992509
  C         5.0966587987        9.0451477491       30.8587417390
  H        -5.0898557627       11.3062300039       25.8892007331
  H        -5.6747793100       11.1450261171       27.6202230202
  C        -6.7658314445        9.9672625710       26.2045024054
  S        -1.9279439114       18.0657292068       31.3268738708
  N        -2.4750163768       17.6666903233       32.8048634208
  C        -2.6810539433       15.5483793474       34.1183150294
  H        -2.8530698086       13.4801386807       34.8391468381
  C         3.9408675516        9.2078215295       12.5959458109
  N         3.9069813897        7.8779205521       12.4991353744
  O         3.6486527480        5.9860269434       13.8958638749
  H         5.8225456950        9.6910109752       31.4040647830
  H         5.4488345095        8.9419509386       29.8384727988
  C         4.8732496476        7.7409854374       31.6240269887
  H        -6.6139933915        9.0482707818       25.6244240792
  H        -7.3714081264        9.7159809446       27.0694196746
  C        -7.5749114917       10.9785594128       25.5047550941
  C        -2.9750450229       16.2950461653       35.2702389559
  S         4.4480970236       10.0397324282       11.1973305393
  C         4.0480176816        7.1094414719       11.2574542503
  H         4.5964391104        8.0212109306       32.5883011818
  H         4.1292285163        7.2298869079       31.0537724441
  C         5.9589029242        6.6885318184       31.6792415846
  H        -6.9870597900       11.4373096124       24.7806106707
  H        -7.9181705676       11.7763290757       26.1982107055
  C        -8.8447388718       10.3678816183       24.8766529144
  H        -3.1966220858       17.3502215075       35.1168020314
  C        -3.3488720899       15.9028188156       36.5604985545
  H         4.9278063291        7.4718383355       10.6691486981
  H         4.3196268341        6.0217077514       11.5231403986
  C         2.7798607125        7.1357876490       10.4620751520
  H         5.5089207047        5.8846096675       32.2519063541
  H         6.6908940402        7.0329548940       32.4179947242
  C         6.4326922754        6.1183256808       30.2833708200
  H        -9.0146977746       11.0290988654       23.9680785384
  H        -8.7510782835        9.3740382296       24.5962604345
  C       -10.0725441358       10.3932633439       25.7387314229
  S        -3.8479421689       14.3736270521       37.1307105397
  C        -3.5385696226       17.0126435651       37.5553989220
  H         2.7187756591        6.2693405990        9.8001083584
  H         1.9746544269        7.4014827715       11.0981931366
  H         2.7748317268        7.9172953178        9.7181073650
  H         7.2165839520        5.4601669954       30.5276517202
  H         6.7378876970        6.8878078908       29.6428871583
  H         5.6035336706        5.5851112501       29.8484724394
  H       -10.0845710918        9.7567240924       26.6348532693
  H       -10.9202908247       10.0884254406       25.1120051739
  H       -10.1739403997       11.4467592094       26.0271442535
  C        -4.2592261593       15.3141960570       38.6420350646
  N        -3.9651546810       16.6306902623       38.7495659340
  O        -3.1342262312       18.1674426289       37.2859039672
  S        -4.8516509333       14.6210448700       40.1987146507
  C        -3.8022693482       17.4284047326       39.9485129501
  H        -3.9295935104       18.4420202325       39.7258744902
  H        -4.6659422296       17.2005755110       40.6060823946
  C        -2.4077624591       17.2551176668       40.5672140526
  H        -2.1763509406       18.1007930822       41.3118577370
  H        -2.4008055303       16.3135834205       41.1351672446
  H        -1.6160086133       17.1801973526       39.8401475109
