352
i=
  H         2.7723726750        1.3557724027       13.6890967726
  C         3.6430369808        1.7950361320       13.1862960929
  H         4.2727703283        1.0133877112       12.8427889558
  C         3.1915371765        2.7352728813       12.0527333222
  C         4.5082056472        2.5994213123       14.2640652517
  C         4.2972012922        2.8090105620       11.0042055601
  H         2.9915697055        3.7569943663       12.4541600797
  H         2.2028314844        2.4674914030       11.6875071713
  H         5.2949319551        1.9570935071       14.6503852231
  H         3.8501444032        3.0624870622       14.9462158516
  H         5.1137609983        3.3439535994       13.7605814016
  C         4.4714852160        1.5135499851       10.1526853122
  H         4.2040784785        3.8047895329       10.4353566713
  H         5.1692683401        2.9873052537       11.5752698670
  C         5.0078564022        1.7037717209        8.7201525052
  H         3.5313382355        1.0106066649       10.1275824581
  H         5.1667355781        0.9462941988       10.7986878727
  C         6.3128410887        2.5179361586        8.7724224749
  H         4.3089370142        2.2684130212        8.0602866577
  H         5.0852271410        0.7563843616        8.3609098844
  C         7.5334034195        1.8075530667        9.3707120179
  H         6.5923702124        2.9861141042        7.8238360636
  H         6.2610849413        3.4337551534        9.3039207526
  C         8.7897881880        2.6630095343        9.5452070586
  H         7.6407833534        0.8383771830        8.9393636320
  H         7.2556567681        1.5009503633       10.4259691588
  C         8.4112992860        3.9782731969       10.2292399999
  C         9.2482016425        3.3283521941        8.2534090126
  C         9.9090292517        1.8626951440       10.3798344262
  C         8.6639218483        5.0253678097        9.3637050132
  C         8.0374024019        4.4001885336       11.5297424038
  C         9.1906362308        4.6749997097        8.1419987636
  C         9.8812184662        2.7555724945        7.1183906035
  H         9.3953863023        1.4927603723       11.2296241658
  H        10.2520433875        1.0280643515        9.7349607048
  C        11.1608888787        2.7204975899       10.6725698555
  S         8.2326848407        6.5523807459       10.0325941909
  C         7.8290080030        5.7720028299       11.5720896907
  H         7.8702720676        3.6448050264       12.2931895210
  C         9.5698902439        5.3855331126        7.0284022420
  H        10.1744544781        1.7771047493        7.0286295427
  C        10.1930026381        3.4485886501        5.9722621950
  H        10.8376578359        3.7531406936       11.0330506350
  H        11.7012323910        2.9229432128        9.7410271339
  C        12.2253112771        2.0959391178       11.5733982678
  C         7.4835194463        6.6090165741       12.7735317390
  C        10.0030219694        4.7758371135        5.8531394368
  H         9.4092194194        6.4369555387        7.0213454592
  C        10.6186833542        3.1108715640        4.7603917679
  H        13.2075259960        2.4847360091       11.3021489553
  H        12.2833369064        0.9750749066       11.3565830280
  C        11.8699789510        2.4090401116       12.9985065815
  C         7.5894279578        8.0119073237       12.8836647620
  C         7.1307904954        5.9468955053       14.0630488711
  C        10.4082072321        5.4989798490        4.6043883176
  C        10.6490122833        4.1838955009        3.8937237149
  S        10.9999303299        1.5866754005        4.0128920976
  H        11.7210815167        3.4814134163       13.1144233921
  H        10.8397510750        2.0042120451       13.2129245396
  C        12.9094720885        2.1120337386       14.1043642670
  N         7.8724276511        8.9118019013       11.8488104680
  C         7.4014886198        8.6186058597       14.1459753631
  C         6.9265249256        6.5176299392       15.2815486255
  H         7.0131054443        4.9023291767       14.0244869890
  C        11.7292986858        6.1962514255        4.7363528735
  C         9.3567960417        6.3802286477        3.7599433209
  C        10.8970316062        3.7781659880        2.5496160540
  C        11.1337095643        2.3892489320        2.5186452800
  H        13.7572290803        2.8536206012       14.0484634238
  H        13.3658219930        1.1188819479       13.8904188898
  C        12.3086085010        2.2548632599       15.4795446853
  S         7.8777632204       10.4421406261       12.5246129692
  N         7.5673333254       10.0163564518       14.0652586988
  C         7.0944676494        8.0078975022       15.3779619236
  H         6.5602266890        5.9410991482       16.1190327668
  H        11.5296633753        7.1060211249        5.3498261094
  H        11.9568904456        6.6550911409        3.7816275448
  C        13.0094135634        5.3750757670        5.1921537041
  H         9.3162063984        7.3371420038        4.2525858934
  H         9.8326096896        6.6200675692        2.8504210877
  C         7.9777751659        5.7582056441        3.6132241851
  H        10.9193796612        4.4679938399        1.8000017654
  C        11.5397017258        1.6565618267        1.3103990811
  H        12.0634574551        3.3181882742       15.6152082029
  H        11.3515774993        1.7689946448       15.4975493796
  C        13.3204756825        1.7708673180       16.4499628158
  C         6.8536883360        8.7405196582       16.6184816735
  H        12.7827834952        4.7528416219        6.0719255575
  H        13.3432714510        4.7260131574        4.4578986359
  C        14.1038855227        6.3302631883        5.5553909398
  H         7.2599679859        6.3776117482        4.1970618092
  H         7.9395453415        4.7957632161        4.0103723988
  C         7.5556036576        5.7148462711        2.1465133399
  C        11.6735712350        0.2899814991        1.1407105124
  C        11.9199629384        2.4715322180        0.0860199709
  H        14.2782912789        2.2511965356       16.3524906049
  H        13.5490534236        0.6760556549       16.3508169685
  C        12.8833840687        2.0407467918       17.9171432582
  H         7.0135573396        9.8107202016       16.4501205249
  C         6.6541989413        8.3727530372       17.8856497153
  H        13.7330206767        7.1903297430        6.0721884573
  H        14.5223302468        6.7228766924        4.6236366370
  C        15.1839940907        5.7433559144        6.4380107957
  H         7.7269045417        6.6390235099        1.5682355711
  H         8.1287937204        4.9830913550        1.6731109503
  C         6.0970589144        5.2597536473        2.0291933890
  N        11.3143584434       -0.6329812282        2.1320068995
  C        12.0296750607       -0.3347975289        0.0038471932
  C        12.3020729974        1.8669584132       -1.0719269346
  H        11.8223228066        3.5335411969        0.1140037960
  H        12.8042671632        3.0781587927       18.2047338374
  H        13.6044266249        1.6263904024       18.6020839220
  H        12.0134206565        1.5075822232       18.1692312508
  S         6.6226949795        6.8662088947       18.5482691798
  C         6.5414191791        9.4910630520       18.8626051302
  H        15.2976057005        6.5885665540        7.1104623999
  H        14.8165950584        4.8071132319        6.8999175585
  C        16.4752102209        5.6491667582        5.5533585153
  H         5.7925845646        4.3737362713        2.6462791992
  H         6.0757590689        4.8808192947        0.9970454601
  C         5.0820386872        6.3818775095        2.0577696664
  S        11.4773253007       -2.1632935369        1.5664742191
  N        12.0469708857       -1.7030645655        0.0575211547
  C        12.3841888750        0.4182692972       -1.1830862568
  H        12.5206053446        2.4855871100       -1.9058897174
  C         6.4764183423        7.6224963996       20.1586339798
  N         6.3945827572        8.9810520104       20.0673861203
  O         6.6614973801       10.7058597159       18.5567992196
  H        16.2701782934        4.8507611737        4.7901942286
  H        16.7751878201        6.5454371113        5.1043692856
  C        17.6524980650        5.1279703086        6.3999070764
  H         4.0455103233        5.9973529053        2.0659278464
  H         5.1275055395        6.6432092056        3.0805955456
  C         5.3053443065        7.6767556145        1.1864288115
  C        12.8269443555       -0.3804937854       -2.3621828223
  S         6.3222098846        6.8794020837       21.7485178168
  C         6.4510328778        9.8461415521       21.2702366845
  H        17.5290862732        4.1763989988        6.9146068623
  H        18.4164223532        4.9072401672        5.6251083625
  C        18.2463693662        6.2548909592        7.2642249854
  H         5.8480751210        7.4153605385        0.2853608547
  H         6.0168419236        8.2234327909        1.7415335703
  C         3.9805942178        8.3986053403        0.9196998740
  H        12.6573792391       -1.4842929212       -2.3458873478
  C        13.2560141653        0.0159024878       -3.5893280823
  H         5.8091117040        9.4077614888       21.9691379371
  H         6.1086075760       10.8787474442       21.0237768657
  C         7.9530255865        9.9101571614       21.8015718537
  H        17.3958643508        6.6153937302        7.9117796878
  H        18.5075976061        7.1305293043        6.6850159325
  C        19.4698108947        5.7747110546        8.0032772097
  H         3.8323726800        8.2928463823       -0.1882237678
  H         3.2027966947        7.9274860361        1.5568915787
  C         4.0516471955        9.9300836832        1.1841064621
  S        13.7135625742        1.5848295127       -4.1352962333
  C        13.3321644484       -1.0653490100       -4.6145444466
  H         8.3907882669        8.9183233144       22.1047196770
  H         7.8659029684       10.3843523395       22.7626393643
  H         8.5648578746       10.5428746525       21.1632936260
  H        19.2656932419        4.8721870553        8.4744505621
  H        20.3097246126        5.4860126948        7.3673851101
  H        19.8527130577        6.5040698835        8.6911966912
  H         3.1605330088       10.4218514044        0.7993779053
  H         3.8824944733       10.0192337152        2.2470394037
  H         4.9129373885       10.4434049528        0.7514162044
  C        13.9212702759        0.8071406236       -5.7688552591
  N        13.6691985764       -0.5283483446       -5.7761227420
  O        13.1479146780       -2.2601174213       -4.3523400991
  S        14.3799294975        1.5172057872       -7.3049083179
  C        13.8849728662       -1.3918570993       -6.9100502031
  H        14.1107797863       -2.4118192804       -6.5328884319
  H        14.7607114556       -1.1081319086       -7.4995028657
  C        12.6158411010       -1.3929206392       -7.6717269698
  H        12.2521075487       -0.4426771102       -8.0786330270
  H        11.8011607516       -1.6304945556       -6.9453307389
  H        12.6837758312       -2.0447012265       -8.5689514716
  H        -1.9773432235       14.9638609097       15.8938956907
  C        -2.6806578383       14.2299064526       16.3132689192
  H        -3.5120683106       14.7356458105       16.7643520867
  C        -1.8117672570       13.6182643820       17.3686308233
  C        -3.0852191413       13.3163194756       15.1963575871
  C        -2.2745133042       14.0654518759       18.8051124969
  H        -2.0327632005       12.5579789444       17.4295818346
  H        -0.7789452668       13.7095243131       17.1215286865
  H        -2.1598678753       12.7305231369       15.0882318580
  H        -3.8806862780       12.6276883873       15.5009405579
  H        -3.1663856844       13.7872563891       14.2093334193
  C        -1.3938951477       13.4160618090       19.8330819670
  H        -3.1935566363       13.6169337540       19.0213895151
  H        -2.2416501511       15.1714514627       18.9991743134
  C        -2.0163706302       13.5047205791       21.2379012483
  H        -1.2083745105       12.3400700462       19.4888638110
  H        -0.4750743766       14.0529724209       19.8064846718
  C        -1.0505884176       12.8645978067       22.2377631721
  H        -2.9023546976       12.8716712158       21.3551437334
  H        -2.2957204682       14.5604239278       21.4722973643
  C         0.1207069278       13.8144160104       22.6003675059
  H        -1.5488633134       12.3618111166       23.0884365579
  H        -0.6522399202       12.0461040898       21.7441181765
  C         1.2792031557       13.1924962990       23.3564928266
  H         0.5671701189       14.3224222171       21.7829717533
  H        -0.1646225974       14.5469709475       23.3776177110
  C         1.6729016434       11.9378331247       22.5779671774
  C         0.9635005610       12.4320452880       24.5642335559
  C         2.5454704678       14.1820168967       23.4963816996
  C         1.5612027871       10.7419917532       23.3600603049
  C         2.1008594745       11.5882681416       21.2965937972
  C         1.0913758131       11.0955497340       24.6182534441
  C         0.5812867433       13.0286301170       25.7338275121
  H         2.6594801523       14.7829106811       22.5742356739
  H         2.3574962780       14.8588691919       24.3573411879
  C         3.9261075014       13.5024566051       23.7436173990
  S         1.9254574123        9.2929903715       22.5645675430
  C         2.2941903151       10.2511492202       21.1804737381
  H         2.1098609391       12.3584004963       20.4976417733
  C         0.8706127859       10.4432727273       25.7621308972
  H         0.4017219935       14.1173466392       25.7795717213
  C         0.2299745046       12.3557716175       26.8695205927
  H         4.3057794673       12.9114750733       22.9193352058
  H         3.9023076579       12.8740680572       24.6241177542
  C         5.0533493841       14.5675650831       23.9502619221
  C         2.7187956753        9.5862056057       19.8719104296
  C         0.3517372378       11.0117621521       26.9408254131
  H         1.1197655743        9.4258339861       25.8078972141
  C        -0.1705241668       12.7414095313       28.1247879592
  H         5.6815699466       14.2051060143       24.7943481329
  H         4.6794454849       15.4245966100       24.3549430767
  C         5.8363984511       15.1086689731       22.7655746697
  C         2.8901681403        8.1698193492       19.6770531027
  C         2.9494231211       10.3931520203       18.6805193959
  C         0.0074225884       10.3505093836       28.2722943166
  C        -0.2602623554       11.6500283566       28.9345536832
  S        -0.5548126979       14.2125946277       28.9623855058
  H         6.5118828978       15.8171161712       23.1882506561
  H         5.2463742990       15.7283868396       22.1510984323
  C         6.6218503325       14.0104085817       22.0430581598
  N         2.7659120169        7.1792632416       20.6558359462
  C         3.2464881808        7.6343509775       18.4889790744
  C         3.1972873497        9.8760767121       17.4531370155
  H         2.7970113254       11.5131302736       18.7508925584
  C         1.1828755799        9.5173565196       28.8759754953
  C        -1.2836699461        9.5090282157       28.2073847195
  C        -0.5992014110       11.9722571770       30.2330829667
  C        -0.7248954393       13.3002497207       30.4495046039
  H         7.7028530046       14.3053367566       22.1531704113
  H         6.5129343433       13.1257307278       22.6059653204
  C         6.3531606095       13.7937450054       20.5862807779
  S         2.9915583781        5.7147541678       19.9932987253
  N         3.3951359959        6.3119312312       18.5277665405
  C         3.4084035630        8.4327961074       17.3221206039
  H         3.1954430121       10.5365898019       16.6017082752
  H         1.5495816770        8.8368465232       28.1453239762
  H         0.8358343348        8.9292036858       29.7096367551
  C         2.4181625990       10.3589411334       29.2864051815
  H        -1.0529246496        8.6328498704       27.5397022112
  H        -1.4737478177        9.2000774599       29.1613591632
  C        -2.5517779311       10.1522238397       27.6651354481
  H        -0.5953617079       11.1658319028       30.9388064959
  C        -1.1427491022       14.0377658788       31.7358508556
  H         5.5483032048       14.4486972934       20.2178006561
  H         5.9446324236       12.7885687346       20.5050588155
  C         7.6442842881       13.7199652890       19.7528482008
  C         3.6059287269        7.7382847321       16.0273759465
  H         2.8797888587       10.5649492673       28.3515917420
  H         2.0861196055       11.3090914336       29.7587315625
  C         3.3926935512        9.5295073528       30.0653929371
  H        -2.4171758739       10.5928015592       26.6978862590
  H        -2.7246441197       10.8436813942       28.4168593874
  C        -3.6977477202        9.1387927374       27.3977778713
  C        -1.2259592733       15.4264373699       31.9100831357
  C        -1.3621015324       13.2329420787       33.0079259297
  H         8.3845126929       14.5071001064       20.0825774448
  H         8.0603841098       12.6788203141       19.9878968014
  C         7.2905402799       13.9866786302       18.2898982932
  H         3.5618435125        6.6517330305       16.1242806719
  C         3.7902750730        8.1172350432       14.7668255683
  H         4.0331771550        8.8888624854       29.3837130845
  H         2.9164179651        8.7332689471       30.6677184982
  C         4.2702054804       10.4637127229       30.9405465813
  H        -3.6765909690        8.6357031564       26.3740056325
  H        -3.7541299799        8.4764244862       28.2702888051
  C        -5.0004503993       10.0180112830       27.3811045325
  N        -1.0103582547       16.3594105014       30.9567717132
  C        -1.5435759665       16.0594257688       33.1603213564
  C        -1.6474819514       13.8668254771       34.1976006233
  H        -1.1638849821       12.1906231328       32.9260694233
  H         6.4036378500       13.4981571953       17.9834135332
  H         7.1506388701       15.0734184238       18.1246939138
  H         8.0139948796       13.7106890463       17.5051757817
  S         4.0179870878        9.7045941438       14.0786735828
  C         3.9075775318        7.0872524940       13.6930581229
  H         4.3425489819       11.4569303611       30.5560732287
  H         3.9176988553       10.6054650552       31.9765974494
  C         5.7575931414        9.9217985802       30.9083291307
  H        -4.9580532847       10.8514736576       28.1255030106
  H        -5.8747076511        9.4121606260       27.6712646612
  C        -5.3596072878       10.8042318769       26.0598479211
  S        -1.0517568277       17.9181017320       31.5299689833
  N        -1.6463359586       17.4263997126       33.0367640628
  C        -1.8901713883       15.3556733442       34.3432260691
  H        -1.6476761373       13.3029435947       35.0815295974
  C         4.1311304567        8.9810938381       12.5001267803
  N         4.1003686759        7.6482354592       12.5197304978
  O         3.8609940772        5.8450612979       13.9086635774
  H         6.2854384357       10.6959512007       31.4136188442
  H         6.1967143227        9.9480936533       29.8759099112
  C         6.0203550020        8.6066409786       31.5427901847
  H        -4.7193342518       11.6907537046       25.9724373647
  H        -5.1748403415       10.1761181289       25.1555687669
  C        -6.8681475340       11.1564096664       26.0844733524
  C        -2.2909790591       16.0377241597       35.4886862349
  S         4.7403188293        9.5795209806       10.9378298862
  C         3.9517824998        6.8118247756       11.3159256812
  H         6.6992057368        8.9274853073       32.3649822358
  H         5.1103143369        8.2213821677       31.9904964708
  C         6.7325640634        7.6301974603       30.6499717697
  H        -7.1043127584       11.9041404502       25.3417528226
  H        -7.1666830763       11.5732579100       27.0102565688
  C        -7.7263308724        9.9543475653       25.5982933599
  H        -1.9539385038       17.0191977663       35.4301201172
  C        -2.8768573391       15.6969397544       36.6616515625
  H         4.3583336616        7.2144066409       10.3891495414
  H         4.4831807671        5.8658779283       11.3985208915
  C         2.4619171150        6.6214862663       11.0736454604
  H         7.6023937025        8.0202859246       30.1947893110
  H         6.0366240681        7.4188147553       29.8468581386
  C         7.1561064764        6.3586860267       31.3323191630
  H        -7.1975030853        9.3855852954       24.8614444189
  H        -8.0189587542        9.3055904683       26.4123109776
  C        -9.0870311713       10.4477604718       25.0007161122
  S        -3.3117939077       14.0496509653       36.9977247466
  C        -3.0480559090       16.6729659710       37.7710787020
  H         1.8441157280        6.4986291683       11.9645828833
  H         2.0676131232        7.4128809387       10.4657857524
  H         2.4265327867        5.6017756509       10.7041215166
  H         7.3906870428        6.6799896945       32.3348515621
  H         7.9806297816        5.8937190838       30.8115842411
  H         6.3369687544        5.6927083481       31.5397689565
  H        -9.0093903769       10.4581421357       23.8777804723
  H        -9.4513384915       11.3763011200       25.3507537129
  H        -9.8722926449        9.8332973436       25.2100842868
  C        -3.6201360817       14.6262284006       38.6448151893
  N        -3.5442005615       15.9904952770       38.7840012010
  O        -2.6880101970       17.8297518488       37.7102346662
  S        -4.0073422813       13.6357449258       40.0447702415
  C        -3.8690288615       16.7010552206       40.0436900124
  H        -4.0686185317       17.7642597611       39.9486324486
  H        -4.8815509464       16.2453662875       40.2584887831
  C        -2.7232752953       16.4675613430       41.0666561668
  H        -2.6112582720       17.3693672519       41.7550780711
  H        -3.0329451716       15.5914942885       41.6360003744
  H        -1.8492187351       16.1417614892       40.5591409906
