352
i=
  H         4.0899649479        0.5996521185       12.3278044784
  C         3.6850564589        1.6612868844       12.3755877872
  H         4.5460260655        2.3745562919       12.3998831379
  C         2.8252767669        2.0262836800       11.1671256514
  C         2.9716850632        1.7593650788       13.7980684268
  C         3.4799447114        2.2997625338        9.8340241038
  H         2.0908335622        2.8524080773       11.2951874573
  H         2.1664079153        1.1329818681       11.0488988687
  H         2.5010373764        0.8744933838       14.0797958072
  H         2.1319528223        2.4865588883       13.7716012398
  H         3.6850122015        1.9776020518       14.5541454435
  C         4.2425379423        1.1430641014        9.2011198503
  H         2.7544481942        2.6747676022        9.1673144659
  H         4.1577426201        3.1360224682        9.8580478915
  C         5.1096034256        1.6258909172        8.0641050003
  H         3.5628526923        0.3689485797        8.8356746949
  H         4.8823855529        0.6890743464        9.9654316095
  C         6.3875212321        2.4996086527        8.3391108315
  H         4.5545107202        2.3603599110        7.5533060384
  H         5.3193113552        0.6986699747        7.4961302095
  C         7.5356475326        1.7148423547        8.8541721202
  H         6.5415912624        3.0795682137        7.4616169870
  H         6.0446514104        3.2325258089        9.0982553615
  C         8.7520021844        2.5713418822        9.1140459225
  H         7.8278342147        0.9685838318        8.1227958522
  H         7.3072113745        1.0426820324        9.7666487338
  C         8.3476899431        3.8579902656        9.8412547785
  C         9.2511282172        3.3210505387        7.9314948584
  C         9.8936127274        1.8071713525        9.8196780472
  C         8.6530235425        4.9843970120        9.0763772823
  C         7.7172053055        4.1974729259       11.0124854136
  C         9.2265160172        4.6777986949        7.8690649401
  C         9.9161851448        2.7407717792        6.8202059645
  H         9.5226363103        1.3632069359       10.7459535329
  H        10.4591137852        1.0412445996        9.1840856534
  C        11.0330315914        2.6848471251       10.1838666189
  S         8.2253380816        6.4370271462        9.7791098050
  C         7.5448596675        5.5467060273       11.1254419493
  H         7.3998914681        3.4361831919       11.6538619046
  C         9.6233938448        5.3242446119        6.7299705575
  H         9.8864055223        1.6382778531        6.9095501369
  C        10.1175466481        3.3848156738        5.6176334001
  H        10.6960939719        3.5978693418       10.6325753827
  H        11.5107666780        2.9088261180        9.2147892964
  C        12.0455049517        2.0369033392       11.1099198264
  C         7.1114998195        6.1888145692       12.4597728696
  C        10.0282220182        4.7296182050        5.5546568275
  H         9.5681830132        6.3776367290        6.8620202597
  C        10.5399306749        3.0392855680        4.3082489505
  H        12.9298029522        2.6667618819       11.1727523605
  H        12.4990282685        1.0724494498       10.7306648508
  C        11.5678667059        1.8502796494       12.5264756694
  C         7.1147872191        7.5577217053       12.6998983466
  C         6.5235099181        5.3474771101       13.5506557987
  C        10.5284876929        5.4575270846        4.3441336982
  C        10.7035107121        4.1584643332        3.5211639748
  S        10.8254811150        1.5555125921        3.5144294629
  H        10.9400784030        2.5898263474       12.8139205875
  H        10.8560843147        0.9859130841       12.5681820320
  C        12.6044262729        1.5375091899       13.6419085835
  N         7.4411081199        8.5644788126       11.7862630780
  C         6.9404304499        8.0747965870       13.9803460430
  C         6.3230555626        5.8608960329       14.8266173789
  H         6.2115138854        4.3139519456       13.3900906307
  C        11.8976880935        6.1899356698        4.4543986772
  C         9.4958496291        6.3491221617        3.6842859809
  C        11.1558076133        3.7866737121        2.2383504642
  C        11.2184137443        2.4235823106        2.0803798699
  H        13.2018670005        2.4772965156       13.5606633791
  H        13.2780547580        0.6829786153       13.3304343121
  C        12.0113340251        1.3680542793       15.0452055807
  S         7.5172673384        9.9940147818       12.6101971809
  N         7.0754353280        9.4770073866       14.0807969861
  C         6.5893046233        7.2710935135       15.1104337429
  H         5.9060775374        5.2253288883       15.5674973473
  H        11.9253065673        6.9716836239        5.2297149410
  H        12.1142187417        6.6623068838        3.4993625464
  C        13.1238688198        5.3336840550        4.9304754422
  H         9.0321969590        6.9099502404        4.5091031535
  H        10.0349703045        7.0603474538        3.0269450541
  C         8.3625999723        5.5978449009        2.9536499314
  H        11.4277791445        4.5259800947        1.4936703788
  C        11.5182775558        1.6963828332        0.8333151970
  H        11.2473065625        2.1192148691       15.2297870815
  H        11.3380706229        0.4981804218       15.0040975263
  C        13.0175244979        1.1221128094       16.2754911382
  C         6.4999653143        7.9599794109       16.4036784243
  H        13.0635852327        4.9592990987        5.9896332904
  H        13.3690538658        4.5648202791        4.2416797083
  C        14.4501834558        6.2141310066        4.9745784360
  H         7.9239346448        4.9169838764        3.6257289741
  H         8.7328012802        5.1343418369        2.0260918162
  C         7.3122994546        6.6143059575        2.4986587835
  C        11.6639812614        0.2547765506        0.7253812522
  C        11.5483834709        2.4168696185       -0.4613220648
  H        14.0210467037        1.5456999188       16.1327827304
  H        13.2989983635        0.0993471798       16.1926463742
  C        12.2546000919        1.3711786631       17.5687257357
  H         6.5962816595        9.0529439935       16.3098977504
  C         6.2083828247        7.4456523658       17.6035177253
  H        14.2678759059        7.1011858041        5.6095445290
  H        14.6731107898        6.5778161752        3.9443779146
  C        15.7138522116        5.4001758219        5.4041527069
  H         6.9959227697        7.3095204196        3.2665816366
  H         7.6990118793        7.2117235681        1.6702776053
  C         6.1607350644        5.8790168944        1.8125090758
  N        11.4689236705       -0.6374601314        1.7734677809
  C        12.0603825256       -0.4187606810       -0.4308066107
  C        11.9521120978        1.7016228146       -1.5980975425
  H        11.3946968274        3.4123061739       -0.6174963490
  H        12.0962649820        2.3789114461       17.8023516970
  H        12.8115290830        1.0048130540       18.3587808600
  H        11.2566552222        0.9892518235       17.5511348068
  S         5.7849279233        5.8646118733       18.2227372165
  C         6.0894233628        8.5091711287       18.6181510239
  H        15.5858561989        4.4804608548        6.0743236916
  H        16.1491920925        5.0633142051        4.4905934154
  C        16.7461469771        6.2173640319        6.2322900347
  H         5.5183367273        5.3932703668        2.4815338509
  H         6.3978391648        5.1155032116        1.1048558001
  C         5.2151827248        6.7038657060        0.9348721840
  S        11.8421714285       -2.1864664753        1.3132034508
  N        12.0586816088       -1.7853700111       -0.2850235719
  C        12.2797937091        0.2529919632       -1.6259440228
  H        11.9644343448        2.2639186932       -2.5313401659
  C         5.7113068515        6.6042467425       19.8275442357
  N         5.8132242340        7.9580323834       19.8357086254
  O         6.3735100549        9.6826409908       18.4337141111
  H        17.1422261413        6.9831230615        5.5019340640
  H        16.2752078807        6.7925021066        7.0305465806
  C        17.8679735247        5.3522403598        6.8196613540
  H         5.7376191419        7.2035225698        0.0835062278
  H         4.4651093112        6.0487087746        0.4966644481
  C         4.4973324655        7.7205144629        1.8235892782
  C        12.5640572284       -0.4881380498       -2.7924937577
  S         5.2597586748        5.8327514608       21.3286499726
  C         5.8461935920        8.7270113770       21.1104303958
  H        17.6857593687        4.9317946866        7.8516799367
  H        18.0802815196        4.4942950736        6.1258140448
  C        19.2456749281        6.0543107086        6.9258269048
  H         4.7303318903        7.4960882746        2.8750858038
  H         3.4522580388        7.5475127797        1.7403022312
  C         4.8453546472        9.2149717269        1.6389325222
  H        12.3988117637       -1.5955151968       -2.7584640702
  C        12.9732561175       -0.1114549729       -4.0156478293
  H         5.2387536639        8.4528883504       21.9377060182
  H         5.6359402733        9.7543433884       20.8242697281
  C         7.3435693032        8.7089885949       21.5118188990
  H        19.9961654299        5.4212778488        7.3740153202
  H        19.2539291276        6.9691461194        7.5206725031
  C        19.7305051334        6.2897177335        5.5127161938
  H         4.9084079566        9.7607148714        2.5733321890
  H         5.8764961209        9.2189948626        1.2200193276
  C         4.0180664075        9.8684508113        0.5173562986
  S        13.4254117374        1.4912240236       -4.3926586947
  C        12.9990506108       -1.0789355083       -5.1577160508
  H         7.7963749600        7.6861670263       21.6611145440
  H         7.5317949126        9.2995409556       22.3371275038
  H         7.9870759028        9.0223814232       20.6822411679
  H        19.2659883600        7.1111929932        5.0633594851
  H        20.8303945143        6.5659827798        5.5467135429
  H        19.6110050097        5.4107957159        4.8592313888
  H         3.0053497887        9.4620538526        0.4884769044
  H         3.9173057189       10.9709056765        0.6897803799
  H         4.5927670461        9.6631103111       -0.4203892851
  C        13.9245896494        0.8427523813       -5.9208633523
  N        13.7157169304       -0.5020388540       -6.1436297561
  O        12.6892687355       -2.2645136588       -5.0843728377
  S        14.8397406873        1.7501787832       -7.1945904471
  C        13.9860595011       -1.2699700596       -7.3328293953
  H        14.0681346657       -2.3735390587       -7.1087584420
  H        14.8849575083       -0.8681322790       -7.8935862769
  C        12.8489356119       -1.1498195042       -8.3070563244
  H        12.8959518868       -0.4321618822       -9.1643594918
  H        11.8990220839       -0.9646072401       -7.7811101747
  H        12.8386801471       -2.1181208453       -8.8835652524
  H        -3.6385202959       14.8956066596       15.8504171969
  C        -3.5890789573       13.8604018109       16.1442115567
  H        -4.5452693969       13.4919098264       16.5963922608
  C        -2.5203656034       13.6177653868       17.2401670809
  C        -3.3128457843       12.9588710155       14.8590170581
  C        -3.0061269015       13.5034496975       18.6674079031
  H        -1.9167770520       12.7559153831       17.0589471118
  H        -1.9161219736       14.4980597144       17.1700667542
  H        -3.1962629818       11.8413633206       14.9956422867
  H        -4.1646783326       13.0409403571       14.2264480946
  H        -2.4229875916       13.3498882785       14.3804162186
  C        -1.9997160889       13.3879727360       19.7685354792
  H        -3.8324440635       12.7252697136       18.6109209724
  H        -3.4534130343       14.4539105170       18.8821332119
  C        -2.6628029658       13.1843476981       21.0913312474
  H        -1.3472433733       12.5033725305       19.5968461391
  H        -1.4264137545       14.2424331772       19.6215508150
  C        -1.6816378970       12.5574864898       22.1544726411
  H        -3.3517601971       12.4302205433       20.9183890673
  H        -3.1156585536       14.1780620095       21.3963767854
  C        -0.4533625118       13.4007773553       22.4097769590
  H        -2.1226703011       12.3853603769       23.0939586756
  H        -1.4236763839       11.5262037672       21.8668683754
  C         0.7701950472       12.7240197805       23.1806539583
  H        -0.0742440149       13.9629853573       21.5356051655
  H        -0.7308328678       14.2378943365       22.9878604696
  C         1.1260202773       11.4166372422       22.5334566825
  C         0.3558261944       12.0018344006       24.4434567310
  C         2.0198005638       13.7053296704       23.3664668490
  C         0.9039829065       10.2490152074       23.3336191691
  C         1.6648762320       11.0165364652       21.2752756936
  C         0.4747973575       10.6782636058       24.5734907941
  C        -0.0560990513       12.5921065863       25.6351660263
  H         2.1520743788       14.2092592900       22.3845572179
  H         1.7702090206       14.5661346544       24.0349367092
  C         3.2455583155       12.9645935258       23.8304672444
  S         1.3480803011        8.7914638757       22.6886881482
  C         1.7750721760        9.6299593590       21.2219800264
  H         2.0372535749       11.8021461187       20.5788340832
  C         0.2096307300       10.0568117538       25.8250290617
  H        -0.1235242142       13.6412920997       25.5510153925
  C        -0.3708530581       11.9709149276       26.8296513121
  H         3.7079448790       12.2656449251       23.1064849434
  H         3.1196431530       12.3162379844       24.6994212155
  C         4.3097792382       13.9380163258       24.2594761416
  C         2.2562417694        8.7938026844       20.0589131006
  C        -0.2261455222       10.6517279159       26.9919418358
  H         0.4139531420        9.0274844270       25.7817901886
  C        -0.6812071459       12.4663209933       28.0554146389
  H         4.9756929669       13.4795897520       25.0065522275
  H         3.8693270366       14.7809919829       24.7976399213
  C         5.1731825784       14.3967094770       23.0849014506
  C         2.1570665941        7.3612585498       19.8916187914
  C         2.6254822137        9.5387587981       18.8502519655
  C        -0.7010488295       10.0292976659       28.3075271258
  C        -0.8334794194       11.4571119292       28.9827369086
  S        -1.0050109994       14.0312453716       28.7176358321
  H         5.8155517804       15.3244184641       23.2323476952
  H         4.5833627964       14.6670002044       22.1276219778
  C         6.2356174687       13.4050415009       22.7677730725
  N         1.8328569378        6.5055760155       20.9232031877
  C         2.3542325886        6.8443204423       18.6093649513
  C         2.7843858472        9.0099208251       17.6069586385
  H         2.8392259887       10.5309855221       19.0043878296
  C         0.4569966563        9.1946931877       28.9105282625
  C        -2.1329914513        9.3689139370       28.2840346039
  C        -1.2253772175       11.9335494254       30.2542681972
  C        -1.2299821365       13.2919458330       30.3166879705
  H         7.0833066141       14.0418767237       22.4977204761
  H         6.5428849432       12.8290496183       23.5801086175
  C         5.9118376809       12.4915654377       21.5609766453
  S         1.7529099452        5.0892717745       20.2101836423
  N         2.1666486180        5.4657014818       18.7080179749
  C         2.6545433127        7.5729806209       17.4130360151
  H         3.0851211397        9.5899100510       16.7133001231
  H         0.8004634046        8.4115219605       28.1910183083
  H         0.1773652894        8.5711994578       29.7667252304
  C         1.7882806395        9.9356818478       29.2074061858
  H        -2.0001982614        8.4573971710       27.7269066859
  H        -2.4628986642        9.1661234442       29.3073472240
  C        -3.2856975539       10.2294596192       27.6116126563
  H        -1.2998123178       11.2890917649       31.1787793985
  C        -1.4494638115       14.0684365425       31.5908512080
  H         4.8055425481       12.4152802111       21.3937755893
  H         6.3056210481       11.5498953219       21.7559855888
  C         6.4807258585       12.9900793192       20.2502768932
  C         2.8492483411        6.8814153827       16.1791059286
  H         2.1473469165       10.5134762730       28.3671150084
  H         1.5752260131       10.6169918489       30.0071223999
  C         2.8809329544        8.9069043005       29.5412877952
  H        -2.9864128788       10.5770017455       26.6695218438
  H        -3.5208213392       11.0444018735       28.2440592119
  C        -4.5485897687        9.4207033612       27.3755491612
  C        -1.4854238162       15.4889904795       31.7743730943
  C        -1.7885055936       13.3597597315       32.8674292070
  H         5.8059316072       12.5529990102       19.5143781542
  H         6.3626034073       14.0806086982       20.1602083880
  C         7.9950804622       12.7540727240       20.0980805478
  H         2.8474082746        5.8519243146       16.3102511033
  C         3.0643403028        7.1507468481       14.8292770278
  H         3.3374128618        8.3503358202       28.6905302565
  H         2.6172671693        8.2267825899       30.3202367821
  C         4.0678350891        9.6901691051       30.1242758171
  H        -4.2496092418        8.6114211865       26.7502148572
  H        -4.9276058996        8.8755726314       28.2766941563
  C        -5.6579656639       10.2741184481       26.8005259753
  N        -1.2669984133       16.2443883543       30.6961516111
  C        -1.7937630167       16.1719705229       32.9203058252
  C        -2.0990022105       14.0365900670       34.0375407384
  H        -1.8947656383       12.2770822479       32.8978147287
  H         8.3472858450       13.1589938416       19.1511746166
  H         8.4482416156       13.2646747582       20.9167586753
  H         8.2976338085       11.6978312479       20.1011773607
  S         3.4423289260        8.7409997844       14.2652643227
  C         3.1800874567        6.1198500242       13.7918416614
  H         4.4377480662       10.4200249966       29.3694084687
  H         3.8563306559       10.3291931126       30.9439090715
  C         5.2972363935        8.8209825737       30.4389982116
  H        -5.1714019896       11.0281537203       26.1180084764
  H        -6.1340629069       10.8840790432       27.5677649665
  C        -6.7021092016        9.6066625147       25.9543051200
  S        -1.4395406757       17.8167085308       31.1528677518
  N        -1.6817534393       17.5144735077       32.7041509339
  C        -2.1531732296       15.5493768656       34.0830284160
  H        -2.4424450730       13.4694583280       34.8125647608
  C         3.5797329546        8.0692729485       12.6473978044
  N         3.4764739731        6.7193601504       12.6025451098
  O         3.0203034347        4.8650736489       14.0201601017
  H         6.1570402058        9.4562374557       30.4345992234
  H         5.3794623347        8.1550746289       29.5349553605
  C         5.2190887446        7.9296297367       31.7185832003
  H        -6.0823132019        9.3101711048       25.0946286535
  H        -7.1319790404        8.7060855545       26.3871945024
  C        -7.8475737314       10.5252707253       25.6742710560
  C        -2.5289085950       16.3646885207       35.1866898742
  S         4.2967310815        9.0630885262       11.3419120780
  C         3.5987469011        5.9670432019       11.3237755611
  H         6.0436747865        8.2448626715       32.4085430850
  H         4.3424485687        8.2744311607       32.2926248244
  C         5.1240692374        6.4337749148       31.5175225720
  H        -7.6495749206       11.2518004367       24.8422378982
  H        -8.0249974890       11.0820286407       26.5859278848
  C        -9.1525435092        9.8871292408       25.3245399695
  H        -2.5623688928       17.3977801033       34.9546405864
  C        -3.0707004053       16.0968372954       36.4031664520
  H         4.3621217681        6.3301040012       10.6314612333
  H         3.9749443499        4.9015349573       11.5110580832
  C         2.2089939265        5.8149330913       10.7166896802
  H         4.2926314950        6.1075367142       30.9030210337
  H         4.9399477321        5.9437424324       32.4560727147
  C         6.4089940410        5.7804991881       30.9741613422
  H        -9.3788249991       10.4190566182       24.4502111838
  H        -9.0120490114        8.7997326380       25.1050443399
  C       -10.3145312098        9.9913959012       26.3007678164
  S        -3.3775951765       14.5184177764       37.0990588602
  C        -3.2318310940       17.2212833801       37.3169849287
  H         2.0207898230        6.4953034260        9.8427078332
  H         1.8951604034        4.8295141242       10.5397308909
  H         1.4184846210        6.0196061030       11.4515623197
  H         7.0161918571        5.4345646221       31.8414232887
  H         6.9504529099        6.2342022689       30.1512619655
  H         6.1083598143        4.8538726486       30.4890831258
  H       -10.1910523896        9.4172379964       27.1768522311
  H       -11.2031147623        9.6850000869       25.8506544799
  H       -10.4049748308       10.9881828796       26.5579938526
  C        -3.7381164172       15.3960682136       38.6148818392
  N        -3.6424259261       16.7425249638       38.5344501231
  O        -2.8181523346       18.3612059034       37.1817845379
  S        -4.1702489318       14.6574613919       40.2074177341
  C        -3.7421592223       17.5756818602       39.6810871819
  H        -4.1185677314       18.5532818589       39.3860941263
  H        -4.5375958278       17.1771142736       40.2559430281
  C        -2.4779543219       17.5540714295       40.4476618315
  H        -2.0839629117       16.5195303231       40.7598324963
  H        -1.8199788169       18.0734664435       39.7477109796
  H        -2.6489424105       18.1675323800       41.3034486267
