352
i=
  H         4.3280636018        1.5051670754       12.2945032132
  C         3.7925205107        2.4023126713       12.4197921958
  H         4.5020205476        3.1746697982       12.5228291076
  C         2.8602631805        2.6832955227       11.1890106423
  C         2.8898349821        2.2588839068       13.6637379435
  C         3.7031242975        2.9219199447        9.9286256737
  H         2.2917825403        3.5964947645       11.3979639828
  H         2.1333877270        1.8513983315       11.0011596742
  H         2.3243990881        1.3694737936       13.6351814964
  H         2.1979643706        3.1307582970       13.7906356771
  H         3.6010496184        2.2633515791       14.4565978444
  C         4.3286737261        1.6700087566        9.3710494239
  H         2.9557111125        3.2604416586        9.2005498533
  H         4.4088772768        3.7662366410       10.0347501588
  C         5.0736770557        1.7728334574        8.1009168151
  H         3.5070351324        0.9589408120        9.2744799217
  H         4.9466355661        1.1967506054       10.1594720910
  C         6.3235024369        2.6782778478        8.1306609344
  H         4.4533380155        2.1477491849        7.3229685451
  H         5.2878935469        0.7708024705        7.6658878205
  C         7.5008228115        1.7655485160        8.6998187933
  H         6.6387330809        3.0114365636        7.1927421837
  H         6.1754721744        3.6103302418        8.7626890320
  C         8.8337719003        2.5098197374        8.9173185020
  H         7.7535112211        0.9376033167        8.0075982940
  H         7.1366016040        1.2962106141        9.6390019806
  C         8.4971165263        3.8858025391        9.6281192757
  C         9.2548477381        3.2638173816        7.6966255165
  C         9.9501099726        1.7017061628        9.5765427760
  C         8.8009642399        5.0042149450        8.8684077621
  C         7.9845656696        4.2669572230       10.8469081293
  C         9.2142041027        4.5879471312        7.6035176289
  C         9.8344101725        2.6857980131        6.5082901713
  H         9.5500741605        1.2995646178       10.4632948580
  H        10.2796029567        0.7760590921        9.0505188232
  C        11.2141364326        2.4697177857        9.8568261749
  S         8.5348562627        6.5566298742        9.7092771754
  C         7.9503664013        5.6522536378       11.0271358183
  H         7.5873528626        3.5286155315       11.4323397516
  C         9.6397507587        5.1868017367        6.4723861549
  H         9.8850457974        1.6010047382        6.5238903321
  C        10.2369310330        3.2949935922        5.3974578769
  H        11.0209824642        3.4341027941       10.2599994115
  H        11.7840383981        2.5913062130        8.9246746007
  C        12.1595806581        1.9346690783       10.8929381555
  C         7.4866575997        6.3771957333       12.2155587279
  C        10.0760933868        4.6039740757        5.2889932617
  H         9.5751726283        6.2241764451        6.5256682389
  C        10.6822983575        2.9214883383        4.1510009230
  H        12.8632828498        2.7288135647       11.0380677118
  H        12.7446061850        1.0839358184       10.5080228693
  C        11.4786760343        1.7778435030       12.2692056310
  C         7.5252224183        7.7545830053       12.5094427530
  C         7.0351049141        5.4334266034       13.3186949289
  C        10.5394107624        5.3267267336        4.0163189626
  C        10.8973450267        4.0349586096        3.3051902233
  S        10.9338215792        1.4110249825        3.3557083411
  H        10.8638055620        2.6024483133       12.4275076662
  H        11.0313220746        0.7620485702       12.2920983034
  C        12.6012763212        1.7773682116       13.2579002233
  N         7.7657414108        8.7407562819       11.6124763927
  C         7.2902288088        8.2569630385       13.7508996613
  C         6.7153750836        5.9362412552       14.5740174629
  H         6.7867451354        4.4072341273       13.1163118101
  C        11.8501833431        6.0771031539        4.4534388343
  C         9.5087464530        6.2493113287        3.3196328142
  C        11.2925617236        3.6133049806        2.0232340391
  C        11.3648792136        2.2234039660        1.8816611315
  H        13.3596479806        2.4662620302       13.0355437507
  H        13.1918978155        0.8720521765       13.2555289617
  C        11.9404396303        2.0502038333       14.5887558462
  S         7.6922172638       10.2434704442       12.3323165606
  N         7.3483813281        9.6644106802       13.7970177724
  C         6.8274182899        7.4384669309       14.8471299392
  H         6.3725846219        5.2495489692       15.3432273711
  H        11.6457807087        6.6487044204        5.3179754531
  H        12.2298849935        6.7358088792        3.7021427390
  C        13.0662476307        5.1487046707        4.7847609276
  H         9.0407260207        6.9667947682        4.0180485145
  H         9.9401141423        6.9654602207        2.5949505787
  C         8.3088050891        5.5386178212        2.7380965564
  H        11.4975863058        4.3818462374        1.2245903993
  C        11.7296212896        1.5717653585        0.5885370160
  H        11.5997330029        3.0942349802       14.6456464058
  H        11.1251572708        1.3832710152       14.6103873836
  C        12.8432413508        1.5481510747       15.6030084314
  C         6.7049674917        8.1254272822       16.0625852636
  H        12.8824626643        4.5647973566        5.7325928860
  H        13.2773749054        4.4853264004        3.9947100153
  C        14.3605690126        5.9064603952        5.0181943231
  H         7.8138464032        4.9691203610        3.4987300174
  H         8.5994576348        4.7578654329        2.0023538008
  C         7.2749376073        6.5278317701        2.1529585699
  C        11.8825312680        0.1747982282        0.4159251479
  C        11.7881713614        2.3584535217       -0.7020148866
  H        13.7262083175        2.1822779205       15.5939752990
  H        13.1851569725        0.5658837914       15.3781762547
  C        12.1769619974        1.5833933877       16.9889484434
  H         6.8291014777        9.2150018538       15.9907883642
  C         6.4523029348        7.7085493712       17.3624285989
  H        14.0769722122        6.7180505211        5.7281661209
  H        14.8255821111        6.4648257242        4.1484661902
  C        15.3916755103        5.0005245400        5.6334417004
  H         7.2846695822        7.4579331949        2.7092823059
  H         7.6558990243        6.7559803624        1.1538805407
  C         5.9000841575        5.9372025659        1.9878238233
  N        11.7233840639       -0.7741155075        1.4593903173
  C        12.1704034956       -0.4076650621       -0.8096811833
  C        12.0310175929        1.7549916039       -1.9090830787
  H        11.5580854189        3.4218398265       -0.7590078723
  H        12.3775136876        2.4914190196       17.5269813452
  H        12.7226230375        0.8558618973       17.6187150110
  H        11.0924116060        1.3167365977       16.8782296224
  S         5.9827681051        6.1914225993       17.7922770863
  C         6.4917863251        8.6867500909       18.5004562742
  H        14.9108000835        4.3738375627        6.4294329919
  H        15.6557799074        4.2187607920        4.9433310722
  C        16.6367005884        5.8136048640        6.0465170318
  H         5.4902933414        5.5774538541        2.9119443256
  H         6.0285022494        5.1030429170        1.3737694312
  C         4.9330413125        6.9001122542        1.4304604712
  S        11.7611609722       -2.1864317995        0.7775308964
  N        12.2814977359       -1.7872407966       -0.6930215801
  C        12.2641321126        0.3027301083       -2.0081431625
  H        11.9447194896        2.3337648905       -2.7998331752
  C         5.8385213381        6.7409458635       19.4708094422
  N         6.0624734719        8.0819971417       19.6396031819
  O         6.7785769274        9.9026354883       18.3741095898
  H        17.1456827258        6.0133761790        5.0471299225
  H        16.3924698668        6.7190017012        6.6037329718
  C        17.7414639690        4.9775963772        6.7635503580
  H         5.2634943611        7.3979873482        0.5361723320
  H         4.1976833609        6.1667637776        1.1478855022
  C         4.4279214540        8.0065358035        2.3937666479
  C        12.6720159704       -0.3846126767       -3.2209728894
  S         5.2575730995        5.7787633317       20.8635690841
  C         6.1602255306        8.7577459289       20.9182875695
  H        17.2781455350        4.4618734573        7.6424206380
  H        18.0963088380        4.1762864350        6.1664155373
  C        19.0431177036        5.7775187203        7.1109655150
  H         5.2263228559        8.7611502643        2.5926943955
  H         4.1823536125        7.6386232024        3.3636756208
  C         3.2703799260        8.6965995573        1.8266203990
  H        12.4421936945       -1.4604350609       -3.2083576109
  C        13.3159929380        0.0224185687       -4.3668741064
  H         5.5263242440        8.3480888708       21.7150170177
  H         5.6761933545        9.7368943873       20.6363156593
  C         7.6606912487        8.9961599431       21.2877073532
  H        19.6205300123        5.3250776928        7.9074379686
  H        18.7969638368        6.8599731903        7.3766392250
  C        19.9562265286        5.9534319908        5.8778495188
  H         2.4781980756        8.0173064335        1.4807175216
  H         2.7612795857        9.4002359911        2.5469549246
  C         3.6717541122        9.5552566585        0.6527254641
  S        14.0650267327        1.5209877908       -4.7610538329
  C        13.2620411113       -0.9667912315       -5.4616882076
  H         7.9623507615        8.2916428920       22.1212524912
  H         7.8483188510        9.9512023210       21.5847620389
  H         8.3551934148        8.6199627924       20.5162453799
  H        20.3733903514        5.0212480788        5.6793819683
  H        19.3865276918        6.2050132138        4.9350560911
  H        20.7112353119        6.6713376827        6.0670951183
  H         3.0100314495       10.3766596274        0.5436601911
  H         4.7368033440        9.8680135220        0.5534050759
  H         3.4256977102        8.8804870255       -0.1588963963
  C        14.2653880124        0.8148004858       -6.3871660245
  N        13.9428771082       -0.5199525868       -6.5073033261
  O        12.5807282688       -2.0100231352       -5.4412970933
  S        14.8447317510        1.6258837126       -7.7421738120
  C        14.0338149779       -1.3626367788       -7.7696325445
  H        14.2003689773       -2.3399088260       -7.3310158873
  H        14.9727068400       -1.0785605826       -8.2738507167
  C        12.6659451207       -1.4087550157       -8.5892158370
  H        11.9335781388       -0.7493241408       -8.1719461919
  H        12.2159859256       -2.3711629660       -8.7026025968
  H        12.9437973545       -0.9901568874       -9.5434484378
  H        -3.4555689082       12.9393399565       16.1269369773
  C        -2.4630164344       13.3586918943       16.3160666687
  H        -1.6380775246       12.6426431486       16.4003581226
  C        -2.3219391081       14.3378280295       17.4956523560
  C        -2.2001264894       14.1338827630       14.9046385179
  C        -2.8535284375       13.8885701562       18.8341731466
  H        -1.3257337099       14.6638965322       17.6645566978
  H        -2.8668367561       15.2172750557       17.2341808915
  H        -1.3820666562       14.8017284460       14.9679803251
  H        -1.8334585405       13.4043405024       14.1747183826
  H        -3.0691518128       14.6758965857       14.4976261144
  C        -1.8312107788       13.6185297725       19.8382877063
  H        -3.4087232652       12.9078516610       18.8480184687
  H        -3.5310757944       14.6342125833       19.2652728000
  C        -2.4345534542       13.2287445457       21.1625794842
  H        -1.1393217226       12.7910295901       19.5083561376
  H        -1.3345695981       14.5560281983       19.9310356143
  C        -1.3727435972       12.6210365610       22.1468915084
  H        -3.0476678235       12.4141769989       20.9450539159
  H        -3.0854901476       14.0454124947       21.5374008332
  C        -0.1132759733       13.4795936163       22.5031638748
  H        -1.8486784715       12.2869789569       23.1353794539
  H        -1.1458738809       11.6571714322       21.6712454266
  C         0.9632107142       12.7367257212       23.3403833812
  H         0.4059416459       13.8820363031       21.5466442017
  H        -0.4771363843       14.2734263653       23.0684648457
  C         1.3205053087       11.4491989910       22.6135043444
  C         0.5548274677       12.0907832741       24.5902345914
  C         2.2640409028       13.5745270268       23.4071504819
  C         1.0654800081       10.3541738855       23.4210214260
  C         1.7746584529       11.1670528932       21.2837240345
  C         0.6034770935       10.7208231490       24.6818838963
  C         0.0386465627       12.7485141362       25.7330890290
  H         2.4866349492       13.9765952105       22.4170296012
  H         2.1178842932       14.3764578135       24.0609578312
  C         3.5315730567       12.8167067803       23.9762171449
  S         1.4436384980        8.8529695065       22.6207399953
  C         1.9579949582        9.7853293522       21.1602215195
  H         1.9156328287       12.0930615321       20.6759055112
  C         0.0809214785       10.1205211127       25.7663779448
  H         0.0438244664       13.9174864565       25.7650185627
  C        -0.2827896331       12.1348863099       26.8900953316
  H         3.8386088625       12.1848896051       23.1218501979
  H         3.2335525636       12.0219159427       24.7082163430
  C         4.6535321706       13.7521630590       24.2796779816
  C         2.4415268127        9.0998194177       19.8850653626
  C        -0.3386217712       10.7837850676       26.9043462564
  H         0.0773061032        9.1069336694       25.7937315622
  C        -0.6726062048       12.4840054354       28.1798949557
  H         5.5155988584       13.2512441760       24.8270854629
  H         4.3490790170       14.5281952296       24.9917578871
  C         5.2523548726       14.4941520014       23.0408001946
  C         2.4979234897        7.6599293276       19.6057802931
  C         2.8719361228        9.9006277621       18.7465436499
  C        -0.7618746878       10.0516151403       28.1674130955
  C        -0.8423214533       11.3543126255       28.9838631051
  S        -0.8691778191       13.9501868848       28.9789249563
  H         6.0163038492       15.1278237854       23.3048286568
  H         4.5709542885       15.1013149178       22.4414103961
  C         6.0323811743       13.5996493516       22.1011531282
  N         2.0932709620        6.7422865955       20.4830853347
  C         2.6716622473        7.1824582584       18.3218471492
  C         3.1484200315        9.3978117567       17.5124399489
  H         3.0325726334       10.9554816912       18.7599519459
  C         0.1983059260        9.0692966416       28.8405422302
  C        -2.1650412787        9.4145226845       28.0352092064
  C        -1.0831930300       11.7585108646       30.3417174509
  C        -1.1918352861       13.1166541410       30.5018517074
  H         6.9258689454       14.1276391377       21.8234509349
  H         6.4080876295       12.8136931241       22.6880163463
  C         5.3700143401       13.0145591315       20.8158539786
  S         2.1390940545        5.2652479858       19.7605057778
  N         2.4823309092        5.7850376949       18.2876081739
  C         3.0228612249        7.9574608217       17.2224162431
  H         3.4443598272       10.1269371949       16.7736625612
  H         0.5250518393        8.2837571273       28.1657218710
  H        -0.3850433915        8.5698566662       29.6050055744
  C         1.4749077580        9.7690377735       29.4148815126
  H        -2.0490006886        8.5998371955       27.3347653743
  H        -2.4822194898        8.9473497313       28.8972604668
  C        -3.3621246306       10.3004791433       27.5006005545
  H        -1.4183526661       11.0005454790       31.0148041827
  C        -1.5434348057       13.8894385179       31.7935299465
  H         4.2546744820       13.1378004570       20.8646810782
  H         5.6297334847       11.9734616497       20.6505134717
  C         5.7260470010       13.6878047428       19.5139162859
  C         3.2577784592        7.3211163207       15.9864065800
  H         1.8588060294       10.6323858680       28.9165560366
  H         1.1911555349       10.0552754219       30.4265275922
  C         2.6661923051        8.8466783563       29.6236409798
  H        -3.1772012863       10.6942505020       26.5342574142
  H        -3.4594300259       11.1270703752       28.1236126921
  C        -4.6638979040        9.5246686670       27.4268199793
  C        -1.6782954613       15.3255456894       31.8331329977
  C        -1.8699288062       13.1537484047       33.0424801819
  H         5.0583479585       13.7597708783       18.6522165856
  H         5.7572682139       14.7361033995       19.8190388437
  C         7.1661164229       13.3109706415       19.0100747371
  H         3.0171121178        6.2607078057       16.0145393287
  C         3.5228779283        7.8793929441       14.7546273601
  H         3.0269760249        8.6284886691       28.5683028706
  H         2.3000109035        7.9258866401       30.0728476472
  C         3.8633882639        9.4215278945       30.4264851608
  H        -4.5319705750        8.7566514449       26.7032864170
  H        -4.8839850882        9.1907289086       28.4346109253
  C        -5.7702517684       10.3437179010       26.9767902834
  N        -1.3478062233       16.2398095565       30.8211565223
  C        -1.9902080378       15.9815382275       33.0762869165
  C        -2.1979475242       13.8179234472       34.2360856120
  H        -1.8941560366       12.1212079730       32.9183789579
  H         7.2516871119       13.8064970079       18.0461986494
  H         7.9249633163       13.7282637648       19.6537822660
  H         7.4426815214       12.2502040201       18.8298422351
  S         3.8027447944        9.5135250488       14.3666648748
  C         3.5305723359        6.9335721314       13.6051075451
  H         4.0485117896       10.4525401519       30.0503094694
  H         3.7002332446        9.5966410969       31.4482923298
  C         5.0099151024        8.5102810239       30.2380333203
  H        -5.4151533607       11.4077227275       26.9768917224
  H        -6.5449192348       10.2420023512       27.7133139462
  C        -6.2664876365       10.0747929458       25.6252467506
  S        -1.6225526989       17.7129649116       31.4076995447
  N        -2.1291852248       17.3745868202       32.8947711121
  C        -2.3435880036       15.2954882483       34.2529177487
  H        -2.4595563339       13.2485149285       35.1284253489
  C         4.0347668824        8.8736924141       12.7017880985
  N         3.9841727791        7.5619048628       12.5276718342
  O         3.3647319538        5.7355569533       13.7138023081
  H         5.9266119558        9.0776460572       30.3407461863
  H         5.0405183613        8.1030337538       29.1823710953
  C         5.1687788239        7.4056399848       31.3167313248
  H        -5.3985966473       10.2113925904       24.9847528773
  H        -6.6554610635        9.1129199589       25.5443621202
  C        -7.3551131362       10.9602361667       25.1863838831
  C        -2.7051736957       16.1438099743       35.3542793297
  S         4.5213129702        9.8413870894       11.2795203256
  C         4.1662774013        6.9568287930       11.2300158720
  H         6.0305621877        7.6508391718       32.0106358357
  H         4.2810245457        7.3796461770       31.9677267912
  C         5.4270786855        5.9678018722       30.7542823603
  H        -6.9308596315       11.5316927587       24.3468092467
  H        -7.5360565556       11.7359660061       25.9609474633
  C        -8.6321754775       10.2290195991       24.8926972013
  H        -2.4120519438       17.1544383924       35.1994602457
  C        -3.1791938856       15.9004352326       36.5923709417
  H         4.9926814473        7.2298490429       10.5846466913
  H         4.4581727922        5.8795504989       11.3884131149
  C         2.8371917077        6.9417123436       10.4555632525
  H         4.6463227308        5.8587166720       29.9453684778
  H         5.1168706210        5.1677023067       31.5324003013
  C         6.8660075461        5.9078581759       30.2286672717
  H        -9.3116698324       10.7933235818       24.2899176433
  H        -8.3381909013        9.3908388442       24.1536931300
  C        -9.4233373145        9.7561034630       26.1555607809
  S        -3.6794802054       14.4320382848       37.1923658124
  C        -3.3384794466       17.0813052330       37.4591431396
  H         2.1855909145        7.6421074392       10.9769741510
  H         2.9656444676        7.2642848418        9.5051060590
  H         2.5980399511        5.9010570680       10.4158697111
  H         7.5746889436        6.0363741467       31.0698403210
  H         7.0160818780        6.6215619178       29.4330631411
  H         7.0203628085        4.9492913854       29.7822960438
  H        -8.7847814348        9.2404524109       26.8905470376
  H       -10.3356267815        9.1856285607       25.9480136982
  H        -9.8271136294       10.6945334152       26.6385889302
  C        -4.0699697856       15.3228165416       38.6046651589
  N        -3.9662766978       16.6609912799       38.5455445700
  O        -3.0556964358       18.2390916795       37.1299910558
  S        -4.8514635986       14.5352892445       39.9460329055
  C        -4.1250088299       17.5345551801       39.7423093599
  H        -4.3070221772       18.5167712674       39.3807255964
  H        -4.9176699557       17.3594272928       40.4499740665
  C        -2.7767138718       17.5761612070       40.4988683301
  H        -2.7362743579       18.4394662386       41.2178584038
  H        -2.6713732225       16.6545221830       41.0352092397
  H        -1.8308224826       17.7216471969       40.0175385877
