352
i=
  H         3.4314876676        0.8461749767       13.1531394751
  C         3.8074254775        1.8773925532       13.1788151157
  H         4.8830607223        1.9305820297       13.0472094779
  C         3.1549774304        2.5371640530       11.9286880731
  C         3.4418401938        2.4864563148       14.5478413139
  C         4.1100783457        2.6855781377       10.7019982124
  H         2.9173856387        3.4909749923       12.2754405804
  H         2.1623772349        2.1202656020       11.6772067058
  H         2.9068853717        1.6994743238       15.0974589477
  H         2.7029860361        3.2690636855       14.5643881826
  H         4.3117412396        2.8962562936       15.0267467233
  C         4.5227813198        1.3364613898       10.0970664262
  H         3.5040147069        3.2203882751        9.9931563999
  H         4.9274461459        3.2924693500       11.0776569116
  C         5.2111241897        1.4318874619        8.6693732023
  H         3.6099516488        0.7638451415        9.9118376943
  H         4.9636005528        0.7499025938       10.8905748116
  C         6.4617071606        2.3285973197        8.6753110755
  H         4.3777998896        1.7909200360        8.0232543486
  H         5.5030697187        0.4322387893        8.2697061545
  C         7.6919237300        1.6972224792        9.4086456222
  H         6.8715300621        2.4831950755        7.6111601161
  H         6.2602150071        3.3352916146        9.1336494998
  C         8.9013925874        2.6540483467        9.4696215270
  H         8.0155234962        0.6427768820        9.0831289051
  H         7.3928407681        1.5260655954       10.3984550854
  C         8.4437686094        4.0373082231       10.0025250846
  C         9.3897333340        3.2497500330        8.1453992705
  C        10.1024421164        1.9658941751       10.1963767176
  C         8.6858435511        5.0587450879        9.1247913443
  C         7.9838412430        4.4376191090       11.2404160360
  C         9.2863196463        4.5984143794        7.9834264469
  C         9.9924005581        2.6192688788        7.0189526855
  H         9.7790798828        1.2132038825       10.8420958451
  H        10.7519299018        1.5765278926        9.4371301647
  C        11.0550784654        2.9297403255       10.9703348201
  S         8.4147329266        6.5730573609        9.7808120095
  C         7.8964152750        5.7857161060       11.2716315484
  H         7.8153651480        3.7059780750       12.0235951452
  C         9.7187067098        5.1930495539        6.8331399213
  H        10.1994925692        1.5886240736        7.2137531561
  C        10.3180266051        3.2206405276        5.8472467011
  H        10.5257071305        3.5183093239       11.6375029181
  H        11.4105075332        3.8225677136       10.2855615638
  C        12.3187536702        2.2777431925       11.6755486901
  C         7.6095178046        6.5040005920       12.5303681716
  C        10.2741608357        4.5341730516        5.6684855785
  H         9.5868925822        6.2555772666        6.7403773333
  C        10.9113327642        2.8257243172        4.6194924006
  H        13.0346480537        3.0858296766       11.7034913909
  H        12.9243249092        1.6127417624       11.0013041068
  C        12.0850972178        1.6274020583       13.0306225000
  C         7.6542439419        7.8929410262       12.6342341424
  C         7.2216038530        5.7370497325       13.7628151859
  C        10.6573363280        5.1899459017        4.3954318825
  C        11.0659502997        3.8691214540        3.7474177555
  S        11.3736621665        1.3286915592        3.8357998491
  H        11.2850248779        0.9272212570       13.0120332780
  H        12.8688418568        0.9429408841       13.3049312355
  C        11.9120280807        2.4760606153       14.2815431958
  N         7.9579608494        8.8409814755       11.6339256960
  C         7.5096607937        8.5634805455       13.9065106939
  C         7.0383944012        6.4245623249       14.9654716386
  H         7.0971919144        4.6258470468       13.9212251791
  C        11.8950134714        6.1500088698        4.5596269468
  C         9.4203639957        5.9200318077        3.7343108080
  C        11.4780480698        3.5358367552        2.4425014246
  C        11.6782183687        2.1890131377        2.3517787718
  H        10.9207000798        2.9119994215       14.3815748095
  H        12.5931942614        3.3353115039       14.2711909017
  C        12.4230729531        1.6758757558       15.5326715005
  S         8.0614445657       10.3198385750       12.2184686045
  N         7.6775753759        9.9521241710       13.7908725548
  C         7.2020184583        7.8787629792       15.0846732313
  H         6.5611419781        5.8644458365       15.7482933359
  H        11.5786092900        6.9663703452        5.2474081476
  H        12.0267786584        6.6307023142        3.5709921919
  C        13.1643124945        5.4104283837        4.9751599393
  H         9.0044547799        6.6262991783        4.4117635323
  H         9.8207216667        6.4684138828        2.8967897839
  C         8.3629452567        4.9573363229        3.1466575285
  H        11.4903142148        4.2532050436        1.6454548452
  C        12.0005672824        1.4290915898        1.1148857361
  H        11.6314662043        0.9879789234       15.9432928525
  H        13.2880704287        0.9285260350       15.2907653315
  C        12.8365221264        2.6980119437       16.5870061025
  C         6.9102242803        8.6325404310       16.2567988351
  H        12.9621476530        4.6885013573        5.7190562847
  H        13.5646725794        4.8602760918        4.0899166795
  C        14.3450394937        6.2943040698        5.5630321573
  H         8.2236638489        4.1218830454        3.8141698988
  H         8.7559793001        4.5672862134        2.1609856938
  C         6.9329595524        5.6101116671        2.9575706398
  C        12.0119276531        0.0431450828        1.0058008328
  C        12.3231159697        2.2246312829       -0.1451591722
  H        12.2321418680        3.6400570591       16.5127957911
  H        13.8508396754        3.0479462066       16.4092663642
  C        12.6071644675        2.1338183569       17.9517890956
  H         7.0071745358        9.7216267678       16.2116150377
  C         6.5279017870        8.2473350199       17.5587885326
  H        13.8528002758        6.9870751408        6.1986276001
  H        14.9304192559        6.6767831157        4.7553959482
  C        15.3614032803        5.5570848671        6.5026321296
  H         6.3007382061        5.3526420175        3.8042431822
  H         7.0973039945        6.6528133775        2.9150407495
  C         6.3363534257        5.0688706065        1.6587010643
  N        11.8842182741       -0.8979010906        2.0430834137
  C        12.2622533754       -0.5396650316       -0.2265134922
  C        12.5633345329        1.6174496008       -1.3585792997
  H        12.3122969787        3.3278965549       -0.1242364740
  H        12.3841452871        1.0528774314       17.8306351587
  H        11.7709395238        2.5580309754       18.4116572312
  H        13.4153791686        2.2129144401       18.6361055013
  S         6.2157390340        6.6227910334       18.0943702369
  C         6.6180647703        9.2504786985       18.6579029620
  H        15.4258386689        6.1504198862        7.3619446528
  H        14.8265128180        4.6836158645        6.8875563368
  C        16.6835517587        5.2316976852        5.7488338857
  H         6.4013381339        4.0269497985        1.6619465315
  H         6.8711281522        5.4536698533        0.7978947568
  C         4.8367535944        5.5082735035        1.5110327827
  S        11.7460684662       -2.3480356300        1.3649454868
  N        12.4148185893       -1.9049338142       -0.0165532880
  C        12.5551506663        0.1263793067       -1.4259758120
  H        12.6502875308        2.2086759149       -2.2112109426
  C         6.1683351391        7.3193274379       19.6761028354
  N         6.3768753589        8.6407157886       19.8251517535
  O         6.9649982639       10.4361065498       18.4678395170
  H        16.5325800780        4.6816726358        4.8228343347
  H        17.1488685573        6.1153359771        5.4058842199
  C        17.6230035892        4.4504908992        6.7125954532
  H         4.5451407850        5.1455203302        0.4621865371
  H         4.3842403406        5.0702969644        2.3820733683
  C         4.4871059112        7.0382870141        1.7356860003
  C        12.7522327256       -0.5216813666       -2.6664877785
  S         5.7197601774        6.4267635645       21.1160656280
  C         6.4883193204        9.4506630370       21.0123323599
  H        17.1025297859        4.2412022129        7.6532840668
  H        17.9122687855        3.5009940044        6.2972155161
  C        18.7361187584        5.4415057171        7.1261471103
  H         4.9208017541        7.4236027028        2.7120311247
  H         3.4002606021        6.9781613401        1.9919264842
  C         4.7119469301        7.9017538720        0.5564576686
  H        12.5021793729       -1.5698153426       -2.6814081978
  C        13.3184963768       -0.1413853060       -3.8627773027
  H         5.7977268610        8.9727837196       21.7140048053
  H         5.9384358355       10.3987161095       20.6947910828
  C         7.9699265762        9.5728970988       21.4437480789
  H        19.1135132278        5.3267973347        8.1145965449
  H        18.3123921175        6.4610250197        7.1518238761
  C        19.9254295437        5.4926832048        6.1470979372
  H         5.7345609631        7.6267468225        0.3264556355
  H         4.0517305559        7.6957805651       -0.2575655221
  C         4.4044560788        9.3678699748        0.9109234450
  S        14.0239179099        1.3828377449       -4.3720411387
  C        13.4023262034       -1.1911706401       -4.8281487775
  H         8.0075902226        8.7955992821       22.2254176263
  H         8.3831241663       10.4863940974       21.7985796103
  H         8.6397645108        9.2305451815       20.6109626135
  H        20.0541326158        4.3984324122        5.7106288304
  H        19.5870664537        5.9910169780        5.2295025489
  H        20.7930009033        6.0477118782        6.4497759102
  H         5.2572599260        9.8625679038        1.4639925823
  H         4.0918918261        9.9538457634        0.0893610984
  H         3.5313296664        9.4220087986        1.6003350533
  C        14.3020049372        0.4992105115       -5.8969050676
  N        13.9583406564       -0.7831144479       -5.9256155673
  O        12.9385344857       -2.2828076437       -4.6677659219
  S        14.7166174010        1.4592342674       -7.3432382143
  C        13.8378836314       -1.4949494099       -7.1854652734
  H        13.9410011603       -2.5144787094       -7.0050463005
  H        14.7293816837       -1.2810985830       -7.7084447976
  C        12.3694634348       -1.3311997849       -7.8635126558
  H        11.5438503228       -1.7640484256       -7.3150958053
  H        12.5127575702       -1.9184938859       -8.7917122878
  H        12.1057593664       -0.4190938940       -8.2670131406
  H        -3.6995095263       12.2264822958       16.7998704365
  C        -2.7370394850       12.3768366399       16.4494414020
  H        -2.1734531716       11.4297007349       16.6450170974
  C        -1.9179155090       13.5822534533       16.9467683542
  C        -2.9512428609       12.4727881305       14.9877369938
  C        -2.1536039365       14.0291910516       18.3922681541
  H        -0.8628387768       13.3747414263       16.6876155490
  H        -2.2893088808       14.5148124308       16.4592404415
  H        -1.8807640798       12.5003598111       14.5931065933
  H        -3.3476374635       11.5332516249       14.5880592217
  H        -3.5219075425       13.3435475876       14.5545297429
  C        -1.6148382918       12.9712842736       19.3435119421
  H        -3.2214611185       14.3069150698       18.5302607788
  H        -1.5400896220       14.8955409525       18.5897236947
  C        -2.2300875794       13.0088641802       20.7266228421
  H        -1.6483866139       11.9842731196       18.9049777232
  H        -0.5046110968       12.9931935537       19.3920762812
  C        -1.2075919976       12.5147594103       21.7480965649
  H        -3.0832004380       12.3139438585       20.7215305459
  H        -2.6892089808       13.9976115977       21.0373721264
  C         0.0020411211       13.3226166409       22.0767452368
  H        -1.8125945096       12.3932497531       22.6688198898
  H        -0.9342428189       11.5472879960       21.4197764074
  C         1.2093638579       12.6438977966       22.9114252200
  H         0.4355670357       13.7185378476       21.1855946425
  H        -0.2914089931       14.2232176980       22.6361053560
  C         1.5991356493       11.2748122473       22.2976030815
  C         0.8442082524       11.9671099382       24.2068386417
  C         2.3267722979       13.7001515017       22.9755428886
  C         1.4182663052       10.2411596974       23.2073181670
  C         2.0553882599       10.8763993106       21.0768992900
  C         0.9017914823       10.6127590453       24.4275774894
  C         0.3175444185       12.6632331460       25.3274285376
  H         2.5017589277       14.1172870985       22.0133329794
  H         2.1025808647       14.5764448129       23.5232534134
  C         3.6576835862       13.2013508838       23.5255198816
  S         1.8723741631        8.6832517215       22.5078741061
  C         2.2474170411        9.5198206902       21.0696324355
  H         2.0724429463       11.5607767991       20.3637088882
  C         0.6000759345       10.0822813430       25.6483405956
  H         0.2985866573       13.7540458095       25.1973647208
  C         0.0460641565       12.0985758280       26.5755671799
  H         4.2212661347       12.6200408031       22.7183556430
  H         3.3548105086       12.5764977894       24.3415257989
  C         4.5249866237       14.2559362314       24.1374726669
  C         2.6429206553        8.7640935892       19.7963862120
  C         0.1024831488       10.7601458049       26.7690211452
  H         0.7567774935        9.0313324556       25.8593572154
  C        -0.3256164954       12.5488664780       27.8290588989
  H         5.1497669348       13.7762685301       24.8630766219
  H         4.0647978176       15.0092955037       24.7616804585
  C         5.2928763893       15.0547039669       23.0794578434
  C         2.5127446814        7.3986361292       19.5050355004
  C         2.9602377968        9.6159958134       18.6480488567
  C        -0.1698863502       10.1142655547       28.0956885521
  C        -0.4328445996       11.5425513612       28.7358232247
  S        -0.5739728548       14.1187139983       28.5625345101
  H         5.7555344067       15.9270945460       23.4821323329
  H         4.6392401941       15.4894416233       22.3707677898
  C         6.5392213685       14.4007828316       22.6009065569
  N         2.1288364764        6.3961139232       20.3647183831
  C         2.8224260991        6.9646793291       18.1824105470
  C         3.2489571080        9.1347757176       17.3740288610
  H         3.1745021241       10.6715682650       18.7195810943
  C         1.0915977888        9.4746685643       28.7484251022
  C        -1.4337847035        9.2189734943       27.9782989147
  C        -0.8351589821       12.0319875283       30.0124253319
  C        -1.0829061820       13.3623987317       30.0403782867
  H         7.2734952603       15.1731450469       22.5512974646
  H         6.7506629241       13.5898646006       23.2899688656
  C         6.3522072227       13.8722502530       21.1593317964
  S         2.2190375470        4.9439612111       19.5433448964
  N         2.7927576009        5.5643697179       18.1342382413
  C         3.0336250519        7.7395414536       17.0321809369
  H         3.5525809345        9.8349956706       16.5927303119
  H         1.5113286515        8.6480974853       28.0985351070
  H         0.8004597850        9.1023327341       29.7211915865
  C         2.2646426069       10.4021226839       29.0339078600
  H        -1.2286746247        8.2112220105       27.5066774399
  H        -1.6340480451        8.9066240143       29.0546553163
  C        -2.6699817795        9.8848038828       27.4130687723
  H        -0.9532024268       11.3978402706       30.8655468651
  C        -1.4574970342       14.2937842535       31.1829934609
  H         5.6318897880       14.4797214491       20.6236844077
  H         5.8665889701       12.8891859110       21.1883095118
  C         7.5980785219       13.6883330381       20.3594963633
  C         3.3546053813        7.1923918347       15.7636420212
  H         2.4856507391       11.0412172049       28.1254661205
  H         2.0144037148       11.1628574880       29.7948299225
  C         3.4176315458        9.6338055275       29.5986508028
  H        -2.5051852316       10.3297165707       26.4894481966
  H        -2.8393009919       10.7525701449       28.0831171344
  C        -3.9465962721        9.1140640006       27.2823113053
  C        -1.4765630959       15.6756934137       31.1538878918
  C        -1.8212407863       13.6240195317       32.4628033586
  H         8.3673541849       14.3619049989       20.7926020662
  H         8.0219830197       12.6927641465       20.4373241973
  C         7.4175705652       14.0401133052       18.9095038937
  H         3.2487881501        6.1743207252       15.8285338629
  C         3.7445448480        7.6803708081       14.5193954563
  H         3.9040633971        9.0794061494       28.7446875837
  H         3.0396064021        8.9322709055       30.3257132674
  C         4.5321093858       10.4498632930       30.2646150230
  H        -3.8826858413        8.5729561532       26.3424930011
  H        -4.1288091240        8.4082798202       28.1097799802
  C        -5.1314515920       10.1445191977       27.2172862391
  N        -1.2473702421       16.5341998371       30.1009850767
  C        -1.8026898661       16.4032572822       32.2739971484
  C        -2.1134665447       14.3702437627       33.5767193316
  H        -1.6544776928       12.5982047293       32.4378861026
  H         6.4634839855       14.7024661153       18.7785087192
  H         8.3109947692       14.5164940291       18.4562263269
  H         7.4217627286       13.1434413093       18.2847621910
  S         4.1953712202        9.3398140962       14.0887918666
  C         3.8705606381        6.7438138907       13.4014876824
  H         4.6388644923       11.4441468859       29.7383353683
  H         4.1188960826       10.6102228151       31.2600419152
  C         5.8350939949        9.5766220767       30.3298329938
  H        -4.9346021517       11.0293663379       26.5274563271
  H        -5.1459981765       10.6156274975       28.2145547363
  C        -6.4926315566        9.7012776426       26.8108797298
  S        -1.3290587588       18.0792056109       30.6037966586
  N        -1.7740642885       17.7654750458       32.1040526212
  C        -2.1312501765       15.8544354243       33.5305204169
  H        -2.3970304990       13.8522554558       34.5035701715
  C         4.3676889078        8.7025899333       12.4206512739
  N         4.1899846726        7.3660228635       12.2876498136
  O         3.6769121965        5.5759677814       13.5740788395
  H         6.6106186905       10.2729710068       30.6948721929
  H         6.2193762996        9.2026224284       29.3900301184
  C         5.7336464974        8.2374414925       31.1569210724
  H        -6.4199111502        8.6623273555       26.6460921766
  H        -7.2067168041        9.7825450962       27.6328397849
  C        -7.0186397360       10.4277857944       25.5493755628
  C        -2.4909506289       16.7676127590       34.5908033555
  S         4.5307705279        9.6597875239       10.9382087190
  C         4.1840472963        6.5280469723       11.0378906216
  H         6.5898180272        8.2215964994       31.8444989459
  H         4.7996874519        8.2940924546       31.7166490862
  C         5.6798354464        6.9175737350       30.4216534573
  H        -6.3335324110       10.0788886950       24.7624255709
  H        -6.9164066399       11.5099076639       25.6091241196
  C        -8.5060959915       10.1295671194       25.1089102063
  H        -2.6282203035       17.8183703101       34.3106116356
  C        -2.9479920012       16.5274334690       35.9033905923
  H         4.9677888877        6.9186492985       10.3316375724
  H         4.5734249797        5.5594969284       11.2314158318
  C         2.6933376683        6.4364907737       10.4697893208
  H         5.9012445860        6.9516362032       29.3453909863
  H         4.6887209933        6.4820187877       30.4559910887
  C         6.6281454083        5.8670312840       31.0937658907
  H        -8.7585405519       10.9888622260       24.4426379253
  H        -8.6639675279        9.2895803526       24.4709783789
  C        -9.5015052328       10.0530092732       26.2368846415
  S        -3.2537649647       14.9854960853       36.5446650587
  C        -3.0603924037       17.6386222617       36.8513820337
  H         2.6566505143        5.4937758257        9.9538819999
  H         1.9514932805        6.3323886640       11.2448150679
  H         2.4286394300        7.1562259208        9.7376111368
  H         6.3165924078        5.3211129395       31.9152373019
  H         7.6082544154        6.2659439267       31.3221379403
  H         6.7350608361        5.1458897084       30.2345463671
  H        -9.3890737217       10.9736429906       26.7905206855
  H        -9.4105717714        9.1384904180       26.8260200251
  H       -10.4592831924       10.0327601260       25.8616357887
  C        -3.5529287711       15.7843281922       38.0856544426
  N        -3.5263685588       17.1759656281       38.0378738267
  O        -2.9075913774       18.8585365895       36.6331217918
  S        -4.1749650223       14.9642069884       39.5113691055
  C        -3.7625869370       17.9913797716       39.1951940564
  H        -3.9140207923       19.0109873842       38.7851339230
  H        -4.5097625394       17.7875782871       39.8702672246
  C        -2.4206573187       18.0219391550       39.9670851789
  H        -2.3335470083       18.7457584035       40.8067480839
  H        -2.1856417376       16.9933914213       40.3040424227
  H        -1.6603178983       18.3377740708       39.2555595949
