352
i=
  H         4.6485067385        0.9700780630       12.6387102161
  C         4.0552035008        1.9170331007       12.5345590136
  H         4.9532029056        2.5726781280       12.5165997564
  C         3.1829603674        2.2483621126       11.3822887449
  C         3.3119522648        2.3224831733       13.7917467942
  C         3.8777975138        2.5932115314       10.0792094575
  H         2.5040454284        3.0778838321       11.6404668619
  H         2.5168916315        1.4108837257       11.1495231798
  H         2.4772598114        1.5479871703       13.9492646118
  H         2.7480692224        3.2746117999       13.7626962819
  H         4.0968464695        2.3562227608       14.6443997436
  C         4.9563978460        1.5459276737        9.6439193491
  H         3.0603143684        2.5094235001        9.3815581504
  H         4.2698125621        3.6173983246        9.9093445103
  C         5.5500279726        1.9950411342        8.2802958121
  H         4.4225776532        0.5846851935        9.5633862217
  H         5.7990906455        1.3553846576       10.3063368309
  C         6.8866834394        2.8670880765        8.3667748992
  H         4.8507712296        2.5061756192        7.6938800208
  H         5.8754204550        1.0591565574        7.7067328918
  C         8.2305199148        2.1937897568        8.8524034450
  H         7.0662420995        3.2662462572        7.3436611167
  H         6.6162232183        3.7085854982        8.9717194837
  C         9.5262581291        3.0965201914        9.0279958421
  H         8.4593556715        1.6237215300        8.0010480513
  H         7.9988294617        1.5030505346        9.6729683585
  C         9.0680943493        4.4351259572        9.7640842176
  C         9.8498799718        3.8381832081        7.7771341216
  C        10.7378599274        2.3466562106        9.7773386991
  C         9.2123950887        5.5371579067        8.9656287864
  C         8.3967933847        4.7066461942       10.9876291183
  C         9.7205808421        5.2048896377        7.6913500295
  C        10.2911218878        3.2185515022        6.6300962084
  H        10.3218190132        1.7892597207       10.5448734643
  H        11.0648281180        1.5508690921        9.1881348409
  C        11.8559933832        3.3506922569       10.1715145520
  S         8.7420050235        6.9770252030        9.7893842726
  C         8.2036651002        6.0710323316       11.1543837069
  H         8.1563597690        3.9013371838       11.7033250000
  C        10.0495941994        5.7734372234        6.5245638571
  H        10.3407153955        2.1853632615        6.7231705630
  C        10.6074952098        3.8140822617        5.4334133608
  H        11.4610284984        4.2616298541       10.7256451853
  H        12.4313091000        3.8633440741        9.3711595704
  C        12.9101428633        2.6518344664       11.0162265116
  C         7.7226561128        6.7716236563       12.3733001251
  C        10.4692571592        5.1643156082        5.3319925549
  H        10.0437019628        6.8189823433        6.5985763006
  C        11.0758837617        3.4639405779        4.1698582029
  H        13.8186684983        3.2778785877       11.0907194519
  H        13.3496378332        1.7490644210       10.5897439350
  C        12.4056071463        2.3053559177       12.4292089080
  C         7.7420879623        8.1931305029       12.5703612870
  C         7.4221181766        5.9772800772       13.6247053044
  C        10.8948392045        5.9039231243        4.1028158255
  C        11.2840427462        4.5844644802        3.3427338596
  S        11.5012640521        2.0720829089        3.3618164893
  H        11.5972193046        3.0182750195       12.6078695133
  H        12.0840633334        1.3007237913       12.6230827588
  C        13.3855997949        2.7874921524       13.4979727647
  N         8.1202986908        9.1456876694       11.6052752337
  C         7.5189664459        8.7595939157       13.8096957374
  C         7.2781614039        6.4942814972       14.8760713132
  H         7.4521306680        4.8912738754       13.5448926224
  C        12.1158387607        6.7624121117        4.4534093762
  C         9.8340549460        6.7578411661        3.3572206374
  C        11.6772341424        4.2891731035        2.0289409682
  C        11.6965801875        2.9151867716        1.8643255341
  H        13.2213063974        3.8306791626       13.6653339467
  H        14.3879449446        2.7341263134       13.0507027085
  C        13.4211656417        1.8772319207       14.7221342692
  S         7.9969129138       10.6004659859       12.3286140336
  N         7.5297553147       10.1278727757       13.8102007788
  C         7.2319891737        8.0123452794       14.9680259040
  H         6.9947533804        5.7483167933       15.6592319179
  H        12.0112734536        7.5404287146        5.1875719655
  H        12.4688896658        7.2783389962        3.5508046496
  C        13.3199602228        5.8856079759        5.0585766634
  H         9.9702606803        7.8220877630        3.6320928796
  H        10.2606503917        6.7259920575        2.3311538586
  C         8.4325781592        6.1929578988        3.4108563880
  H        11.7190665760        5.0648503467        1.2247248141
  C        11.9920105055        2.1188627658        0.6423751142
  H        13.7926484041        0.9216838962       14.3650085961
  H        14.1407511145        2.2925245367       15.4734599501
  C        12.1229840465        1.6386031082       15.4036988192
  C         7.0368598373        8.6608220327       16.1835449123
  H        13.0152170076        5.5303303091        5.9419737184
  H        13.6782607281        5.0047984219        4.5037011505
  C        14.5751396136        6.7466079640        5.3552926789
  H         7.9102886298        6.5764142667        4.2993662293
  H         8.5766433271        5.1056982387        3.5486434797
  C         7.6529177490        6.4864862308        2.1759316717
  C        12.1303283591        0.6575605631        0.5424605041
  C        12.1343435860        2.8222178983       -0.6731093430
  H        11.7342019274        0.6693274549       15.1233615582
  H        11.4155957008        2.4490551893       15.0645163566
  C        12.2429555137        1.8294554309       16.8763841072
  H         7.1704965450        9.7220626581       16.2226954838
  C         6.6193419613        8.1956633804       17.3955983744
  H        14.2831292162        7.4790823853        6.0992194428
  H        14.8062109951        7.2813150351        4.4302548146
  C        15.6617367787        5.7867631692        5.9000418107
  H         7.6862511097        7.6038548906        2.0349814962
  H         8.1692991421        5.9735606835        1.3189719003
  C         6.2367468957        5.9023685746        2.4461720831
  N        11.9173448703       -0.2607428941        1.5835482950
  C        12.2545588223       -0.0019232339       -0.6959368128
  C        12.3412868834        2.1937191950       -1.8417634870
  H        12.2210072151        3.9074949596       -0.5591088347
  H        13.0810588861        1.2877379648       17.1985978588
  H        11.3790920734        1.4409643363       17.3801710561
  H        12.4108992622        2.8490574079       17.1708990234
  S         6.2255849961        6.5913994427       17.8843112888
  C         6.5136619987        9.2105036585       18.5269879408
  H        15.1146523629        5.2807895357        6.7061357721
  H        15.9949085338        5.0153025563        5.1845429360
  C        16.8603833879        6.4171327599        6.5711844242
  H         5.8500723522        5.9735225392        3.4971271882
  H         6.3323321891        4.7938067403        2.3652712988
  C         5.3669437821        6.4759250057        1.3989359197
  S        12.1299501125       -1.7489322099        0.9758596995
  N        12.3838586349       -1.3267160311       -0.5840862152
  C        12.4435819977        0.7282780973       -1.9091078745
  H        12.4614355252        2.7589861271       -2.7116231277
  C         6.0244232752        7.2292755530       19.5105047179
  N         6.1063884641        8.5867900370       19.6150716529
  O         6.7529995725       10.4203511489       18.3911411995
  H        17.0949347823        7.3449175524        6.1173089063
  H        16.5125826058        6.9062176225        7.5144250919
  C        18.0922922428        5.4347654844        6.8967364378
  H         5.8864387275        6.6605948577        0.4834102155
  H         4.5166186266        5.8032745053        1.1045315769
  C         4.7010596373        7.7170871377        2.0095328024
  C        12.7631114644       -0.0206166272       -3.0973502009
  S         5.5696463771        6.3502793125       20.8998733470
  C         6.0505144809        9.3167969416       20.8526530001
  H        18.1315258949        5.3337677206        8.0368014923
  H        17.9127624199        4.5133428890        6.4130767575
  C        19.4234748421        5.9340569710        6.3754442529
  H         5.0930901089        7.9043271024        2.9747046992
  H         3.7215234102        7.4857512522        2.3459721978
  C         4.8400554497        8.8896826066        1.0786411406
  H        12.5541933632       -1.0407046114       -3.0039938913
  C        13.4020141974        0.2709836445       -4.3147629097
  H         5.3732649116        8.8971713047       21.6059108959
  H         5.5570273142       10.3546092159       20.6398920240
  C         7.4874750089        9.5404348165       21.3874105209
  H        20.1498693439        5.8183831508        7.1705919981
  H        19.4198847905        7.0065304714        6.2650811436
  C        19.8516539363        5.2537826470        5.0319072306
  H         5.8178653084        9.1917612270        0.8187329866
  H         4.3253131461        8.6430735921        0.1641920375
  C         4.1083482661       10.0642129315        1.7451841906
  S        13.8699979801        1.8534073246       -4.8849177339
  C        13.6333749093       -0.7891988033       -5.2280297690
  H         7.9269757215        8.5796351721       21.6941546742
  H         7.3434946744       10.0824397759       22.3079684720
  H         8.1389328716       10.0212173803       20.6774154329
  H        19.9613041152        4.1851108976        5.1158325008
  H        19.1874799244        5.3948604227        4.1611008646
  H        20.7958210801        5.6875435396        4.9023606072
  H         3.9686131234        9.8658845165        2.8097301442
  H         4.8162295503       10.8820632363        1.7840013881
  H         3.1305076381       10.4577033329        1.3501542855
  C        14.3164269215        1.0100077272       -6.4444927665
  N        14.1040278278       -0.3476429803       -6.3937151418
  O        13.2804210067       -1.9115581280       -4.9922130352
  S        14.6142501411        1.8404495165       -7.9522281508
  C        14.1691143809       -1.1851008314       -7.5951977717
  H        14.3085624808       -2.2055602038       -7.2039860110
  H        14.9674085026       -1.0109563170       -8.1991895286
  C        12.8420681369       -1.1217445036       -8.3592994935
  H        12.9235645277       -0.4017710592       -9.2489129811
  H        12.0165443897       -0.7111196795       -7.8317496592
  H        12.5374345527       -2.0575169261       -8.8092157040
  H        -2.7014481585       15.4550069337       15.6794419893
  C        -3.1027054479       14.4688268983       15.8773769900
  H        -4.1436415680       14.4781775959       16.1200360840
  C        -2.2886649421       13.8477072592       16.9509556379
  C        -2.8795472387       13.7988194902       14.4581657389
  C        -2.8251666080       14.0608348592       18.4219176245
  H        -2.2238401784       12.7548960055       16.7798031727
  H        -1.2714493704       14.2617754961       16.8786159569
  H        -2.6870753138       14.5614339655       13.7406705940
  H        -1.9713328665       13.1331258642       14.5101045653
  H        -3.7540743745       13.1749784494       14.2235668203
  C        -1.8158145725       13.3495178139       19.4152029164
  H        -3.7661706857       13.6398847468       18.6335055314
  H        -2.7216238286       15.0752181850       18.8434956069
  C        -2.3537446180       13.2773172318       20.8379599279
  H        -1.5696811742       12.3136882724       19.1037295550
  H        -0.8796943832       13.9240187466       19.4944435606
  C        -1.3659927192       12.8456697915       21.9665996053
  H        -3.2825094568       12.7371026976       20.8774061284
  H        -2.6110993854       14.3000382204       21.1530112066
  C        -0.1916812094       13.8127226394       22.2920453713
  H        -1.8387441983       12.7798728161       22.9585830080
  H        -1.0322301051       11.8428870722       21.6090773983
  C         1.0849769381       13.1592812658       22.7786479539
  H         0.0236334472       14.4725533590       21.4293079529
  H        -0.6385704890       14.4312389972       23.0605314579
  C         1.4781247595       11.8765662239       22.0805278261
  C         0.6367405056       12.4519734121       24.0236334888
  C         2.3609409386       14.0379528173       23.0799156958
  C         1.3381170825       10.7298073278       22.8253611570
  C         1.9968358693       11.5260397399       20.7889746716
  C         0.7233933971       11.0551628005       24.0599627561
  C         0.1422508731       13.0387853240       25.1504389274
  H         2.6260017288       14.4552438953       22.0721538627
  H         2.2103758226       14.8291057728       23.8781676432
  C         3.5887214755       13.4179326574       23.6026313176
  S         1.7203945637        9.2921733848       21.9993434651
  C         2.1759956365       10.1792694214       20.6359446877
  H         2.2920123670       12.3379900682       20.2041248654
  C         0.3085058535       10.4204434719       25.2188292294
  H         0.2069860092       14.1113343783       25.1217469320
  C        -0.1915439735       12.3964431645       26.2952947875
  H         3.8331422071       12.4733760750       23.1123801217
  H         3.4797002770       13.1147320707       24.6270159889
  C         4.7925318935       14.4032673353       23.5588622912
  C         2.6551801893        9.4669692952       19.3864009293
  C        -0.1564025446       11.0218675672       26.3905783054
  H         0.4432695273        9.4112797767       25.1783659766
  C        -0.5613514226       12.8112376805       27.5392374018
  H         5.6154851958       13.9661405887       24.0627631958
  H         4.5559549346       15.2287944589       24.2410610625
  C         5.3693942032       14.6991559232       22.0948968885
  C         2.6419893992        8.0301481629       19.1445813145
  C         3.1640303921       10.2019483450       18.1635090298
  C        -0.4860003721       10.3703703235       27.7251622909
  C        -0.6422564319       11.7509829743       28.4112721240
  S        -0.8525192396       14.3047897421       28.2364583785
  H         6.4212088808       14.8236890914       22.2821426257
  H         4.9888125655       15.5715298259       21.6078883475
  C         5.3413604378       13.4554827951       21.2144758844
  N         2.3357734370        7.0698894623       20.0774659675
  C         2.9775099449        7.4221516416       17.9527979180
  C         3.5586449470        9.5840956604       17.0032125853
  H         3.3959103262       11.2789285461       18.1905240958
  C         0.7885896224        9.5228345380       28.2282073875
  C        -1.7494875329        9.6001327304       27.6244783523
  C        -1.0970362892       12.1762198395       29.6462190940
  C        -1.1691762948       13.5361314190       29.7415733967
  H         5.8986135408       12.4847608800       21.5076015020
  H         4.3251081255       13.1726842528       21.1362641872
  C         5.6013720856       13.7289124829       19.7461476722
  S         2.2292950062        5.6234993407       19.4548493185
  N         2.7484511780        6.0016797038       18.0137650517
  C         3.3837827437        8.1347912949       16.8118810405
  H         4.0149546350       10.1456539422       16.1720008037
  H         1.2442288636        9.0616433443       27.3970239661
  H         0.4080636838        8.7144350051       28.8733258788
  C         1.9351068473       10.1873779524       28.9838739792
  H        -1.4864846216        8.7110861330       27.1330736533
  H        -2.0418149054        9.3118460130       28.7025230060
  C        -2.8886047661       10.3850567895       27.0027169439
  H        -1.3932406794       11.3809079980       30.3880901309
  C        -1.5622338388       14.3088317621       30.9970654851
  H         5.0478309803       14.6486694579       19.3892688389
  H         5.1015039458       12.8633597893       19.2043886667
  C         7.0520311910       13.7563705508       19.3955468367
  C         3.7176673500        7.3910945436       15.6526073379
  H         2.2723071966       10.9101687503       28.2584358547
  H         1.5623171667       10.8212467536       29.8116305522
  C         2.9891558532        9.1332154742       29.4447440898
  H        -2.6842359485       10.7102598115       26.0400895608
  H        -3.1540006075       11.2768288119       27.6029805583
  C        -4.1020996262        9.5655890135       26.7140638307
  C        -1.6646087420       15.7246683707       31.2188807654
  C        -1.8592386189       13.5869667820       32.2571821973
  H         7.4520783373       14.6387020725       19.9099341597
  H         7.6492031238       12.8878990275       19.8505494263
  C         7.1586293856       13.8407997680       17.8507084511
  H         3.7829192145        6.3888367127       15.8860017408
  C         4.0278290698        7.6834199873       14.3450780717
  H         3.5933999352        8.7525764632       28.6274033478
  H         2.2910730252        8.4684362650       29.8396108023
  C         3.7652738873        9.7620086533       30.6082039386
  H        -4.0342375577        9.0112028522       25.7638911695
  H        -4.1065933249        8.7883133986       27.4273151752
  C        -5.3952505047       10.3107274905       26.6714961655
  N        -1.4109365724       16.6622162096       30.2600635137
  C        -2.0804117299       16.3285585730       32.3924181596
  C        -2.1775380322       14.1858150998       33.4566258566
  H        -1.8000848388       12.4981600117       32.2189664581
  H         8.1873436327       14.3157370263       17.6690303792
  H         7.1984072649       12.8269093734       17.4067919964
  H         6.3770296217       14.4441106497       17.4362175781
  S         4.1364442227        9.2670071011       13.7996644083
  C         4.1648317121        6.6261589090       13.3075970507
  H         3.4156886565       10.7630024524       30.8663087888
  H         3.7749631301        9.0840725433       31.4530272977
  C         5.2227330589        9.8095758297       30.3335797234
  H        -5.0877790896       11.2561146614       26.3444219472
  H        -5.7373655728       10.5083472802       27.6682958928
  C        -6.5034756277        9.6675699285       25.8470439631
  S        -1.4325213510       18.1208205642       30.9166443205
  N        -2.0325316889       17.6961713238       32.3170327389
  C        -2.3213821859       15.6444949201       33.5721325646
  H        -2.2760945202       13.5317311584       34.3550603601
  C         4.3665977552        8.5948523627       12.2349340562
  N         4.3607976718        7.2251500187       12.1413191923
  O         4.0176844591        5.4474061367       13.5251712837
  H         5.7517168850       10.6662053934       30.7220803843
  H         5.2767088503        9.8977888514       29.2405379176
  C         6.0813555587        8.6242029260       30.8188019048
  H        -6.1317082841        9.1839078146       24.9181129597
  H        -6.9947673626        8.8287076193       26.4039899620
  C        -7.4202773650       10.7021618511       25.3373314282
  C        -2.7827640697       16.3258527026       34.7514706527
  S         4.8428639219        9.3940357467       10.7438830068
  C         4.2960685696        6.4573495464       10.8569418369
  H         7.1162842723        8.6950517963       30.4598732123
  H         6.2009929796        8.6025226307       31.9028128237
  C         5.5273305953        7.2695563818       30.3605748767
  H        -7.2043097145       10.9775407584       24.3303480052
  H        -7.3633755930       11.6809233645       25.8274864887
  C        -8.9007087682       10.3287349795       25.3388439243
  H        -2.6113899157       17.3423077332       34.7481834201
  C        -3.1723749956       15.9217282604       36.0267677378
  H         5.0197546787        6.8320515330       10.1046850963
  H         4.4319255918        5.4122937457       11.0737396457
  C         2.8616174332        6.5266987212       10.2884856466
  H         5.1886805363        7.3302455069       29.3015037098
  H         4.6125287066        7.0885273147       30.9921111312
  C         6.5036655711        6.1391244805       30.5049933445
  H        -9.3459857382       10.6139838751       24.4037724971
  H        -8.9921636330        9.2165301664       25.1453779150
  C        -9.6974586075       10.8257311765       26.5334202458
  S        -3.6243378492       14.3524576751       36.5553503054
  C        -3.2452426068       16.9262256173       37.1017886154
  H         2.7367619591        7.3832628709        9.6353311089
  H         2.5560896101        5.6110734546        9.8482200313
  H         2.1320621408        6.7865250213       11.1144053524
  H         7.3141528238        6.4246428196       31.2941581454
  H         7.0472853106        5.8129751978       29.5941403617
  H         5.9764215921        5.3251255338       30.9739884842
  H       -10.0503820587       11.8386447162       26.5511805254
  H        -9.0889906734       10.8517615132       27.3678659490
  H       -10.4437205982       10.1405511988       26.7015309606
  C        -3.9344610383       15.0572967655       38.1450514703
  N        -3.6943318924       16.3728807014       38.2429113905
  O        -2.9614097676       18.1007904978       36.9217097192
  S        -4.5651060096       13.9981034930       39.4321206234
  C        -3.8183645302       17.1270737922       39.5222605964
  H        -4.2750657080       18.0437243144       39.2990578631
  H        -4.4372999927       16.5941775136       40.3531945476
  C        -2.3567500702       17.4139197683       40.0923322418
  H        -2.3473512804       18.4495105910       40.5073585505
  H        -2.1585243408       16.5864767839       40.8586695388
  H        -1.6408571484       17.3993997718       39.3123253216
