352
i=
  H         4.9345248942        2.5198167201       12.5335365621
  C         3.9433680295        2.9806240796       12.5409089475
  H         4.1873931215        4.0401140524       12.5532237180
  C         3.0114015294        2.5813652456       11.4782155694
  C         3.1978947627        2.6319661735       13.8639193963
  C         3.5781770809        2.8927464734       10.0024217244
  H         2.0923017019        3.1763802820       11.5594797547
  H         2.6389151389        1.5857282417       11.4445302128
  H         3.2888067609        3.4432978502       14.4685503673
  H         3.5299157643        1.7846043327       14.2436812319
  H         2.2315317793        2.5291131649       13.6748669864
  C         4.3454895525        1.6187887019        9.5413759116
  H         2.6169067739        3.1253451589        9.5643271427
  H         4.2788417440        3.7555877445       10.1462406388
  C         5.0709924067        1.7264535231        8.2837888393
  H         3.5611741207        0.7868163548        9.4307756166
  H         4.9352336876        1.3100891550       10.4714475377
  C         6.3076698508        2.6046806248        8.3464935722
  H         4.4268556352        2.0663126845        7.4017727941
  H         5.3010710291        0.6830028378        7.8110381180
  C         7.6435734159        1.9481378723        8.7601585117
  H         6.5394342614        3.1262709567        7.4041236547
  H         5.9246746941        3.6286591768        8.9270505785
  C         8.8367382997        2.8224528685        8.9155960911
  H         7.7931225387        1.2413149440        7.9865281756
  H         7.3679963482        1.4688369976        9.6506850121
  C         8.4078193186        4.0663118350        9.6956413562
  C         9.2241729951        3.5222373248        7.7442980195
  C         9.9223444892        2.0293262470        9.6269064634
  C         8.6362751161        5.1706702315        8.9373254910
  C         7.9323613337        4.3606318196       10.9902016306
  C         9.0907611133        4.8511555396        7.6738328279
  C         9.8296277190        3.0141807346        6.5477382802
  H         9.4427228473        1.7041021313       10.6394617916
  H        10.2064453394        1.1392360572        8.9233548581
  C        11.2818638944        2.8658725493       10.0033225205
  S         8.2805459273        6.6533519231        9.8413561420
  C         7.8678340377        5.7200626058       11.1354873616
  H         7.6871184445        3.7262660550       11.6833628181
  C         9.5895436954        5.5194025390        6.5407105169
  H         9.8220388699        1.9335408542        6.6488894108
  C        10.2379226490        3.6484575773        5.4305423274
  H        10.9025186586        3.7482097847       10.3408054111
  H        11.7632654005        3.1490945045        9.0696726252
  C        12.2026785815        2.1782999160       11.0337100994
  C         7.6310991977        6.4377891049       12.4883889126
  C        10.1316103746        4.9734634874        5.3836678106
  H         9.5450620782        6.6445697373        6.4581463879
  C        10.7643776353        3.2762174584        4.2489655560
  H        13.2369456193        2.6809451896       10.8581132821
  H        12.4881682178        1.2429891166       10.5976929421
  C        11.6902129214        2.0898564206       12.4510839275
  C         7.7238201884        7.8001364459       12.8480857211
  C         7.2937874940        5.5455863920       13.6594607712
  C        10.5008953672        5.6366705123        4.1341525475
  C        10.8506686257        4.3185443698        3.3928614123
  S        11.0106523184        1.7468786264        3.5829502251
  H        11.1507728980        2.9619106719       12.6744353614
  H        11.1410320918        1.2701917191       12.5754972597
  C        12.7834418623        2.0458454929       13.5821547066
  N         8.0483943642        8.7704961621       11.9106194336
  C         7.5598587457        8.2632470323       14.1409426116
  C         7.0859854167        6.0612184012       14.9961101078
  H         6.8644048809        4.5697669933       13.5214979100
  C        11.7809923336        6.5243665526        4.3681379910
  C         9.4445268325        6.3862855511        3.5059047245
  C        11.1305496321        3.9255478181        2.0986043589
  C        11.3360236627        2.5735501952        2.0868715645
  H        13.2598007915        2.9569410842       13.4964829881
  H        13.3974075898        1.2935669079       13.3702781832
  C        12.1709504555        2.0065937766       14.9538094935
  S         8.0093026740       10.1752876920       12.7291036316
  N         7.6917487186        9.6329469961       14.1791446429
  C         7.1425061836        7.5496826288       15.1650082314
  H         6.6464872796        5.3259337957       15.7382343392
  H        11.3380974945        7.5175842272        5.0217152861
  H        11.9589764000        6.7490850146        3.2592570105
  C        12.9173743593        5.8061509788        5.0186390507
  H         9.1020743857        7.2034625594        4.2641211085
  H         9.8203762695        7.2186195238        2.6912897691
  C         8.1778672792        5.6231669599        2.9968576996
  H        11.2147922923        4.5798548231        1.3673261516
  C        11.6273276908        1.7142375944        0.9092308898
  H        11.5717295383        2.9126690495       15.0911705814
  H        11.4997405889        1.1614932238       15.1019752708
  C        13.2653894086        1.8453897074       15.9271066973
  C         6.8035500712        8.2541900714       16.3901169907
  H        12.5787697589        5.5014709677        6.0382022332
  H        13.1712086667        4.9039625127        4.4338587323
  C        14.2138135695        6.5276719884        5.1905122505
  H         7.7449676670        4.9930332785        3.7512490475
  H         8.4240827355        5.0522673855        2.0687096172
  C         6.9928419584        6.4840285649        2.4696770570
  C        11.7759325729        0.2575839586        0.7187461931
  C        11.9394083066        2.4260966229       -0.4320729086
  H        14.2197204743        2.5395350943       15.6720961472
  H        13.6309752713        0.6744064850       16.0050849125
  C        12.8340538056        2.2862467506       17.3993119210
  H         6.7950734240        9.4296756262       16.3150398462
  C         6.4867969255        7.8477217672       17.7078000969
  H        14.0287054975        7.2241009303        6.0101714086
  H        14.3783736195        7.0006433434        4.2911728942
  C        15.3854807336        5.5053381639        5.5655206359
  H         6.6492440750        6.9989406450        3.3103317317
  H         7.4923232911        7.1605626713        1.7933698865
  C         5.9546879417        5.6184949288        1.8628022902
  N        11.5879863809       -0.5523734763        1.8254842203
  C        12.1888195295       -0.3207911880       -0.4289366091
  C        12.3227340745        1.7704177192       -1.6536766328
  H        11.8608824918        3.4403694360       -0.5024910496
  H        13.5341657184        1.8627743820       18.2059527958
  H        11.7955250636        1.8419671961       17.5613696836
  H        12.7268009568        3.4230425748       17.2419930676
  S         6.2270991305        6.2707951552       18.2092475821
  C         6.4356790077        8.9023922000       18.8121917797
  H        15.0575709635        4.9002059597        6.2669559078
  H        15.5577311402        4.8994216575        4.7743692468
  C        16.5797441124        6.2307316645        6.1809022543
  H         5.9442864401        4.5414981915        2.1450646406
  H         6.1291247248        5.4826782755        0.7907397161
  C         4.5637158673        6.2683501840        1.9542019380
  S        11.8124138599       -2.0789908587        1.2421058482
  N        12.3112464737       -1.7265123645       -0.2309458415
  C        12.4582894033        0.2231089288       -1.6167077424
  H        12.5449950870        2.3766346876       -2.4609593791
  C         6.0450850095        6.9331462826       19.8551549954
  N         6.2703451580        8.3225991023       19.9336649122
  O         6.5236385899       10.0665329050       18.5818349578
  H        17.0078772845        6.7944479193        5.2927760482
  H        16.2192924879        6.9776456587        6.9294928088
  C        17.5042821008        5.2673083711        6.8923228810
  H         4.1101095194        5.5241097111        1.3297321334
  H         4.1218194129        6.2421421498        2.9369799972
  C         4.4354899423        7.5967287636        1.2213588666
  C        12.8301899003       -0.6122792532       -2.7671091877
  S         5.5384141317        6.1989543132       21.2472152473
  C         6.4382607131        9.0408775071       21.1729692010
  H        16.9688059019        4.9533220922        7.8888681097
  H        17.6851144094        4.3836116776        6.1212197449
  C        18.8653206492        5.7620891280        7.2570132741
  H         3.8053455014        7.5996559649        0.2946406170
  H         5.3882842077        7.9477729512        0.6806918339
  C         3.9496432188        8.6709647849        2.1539203903
  H        13.0171521411       -1.7045991766       -2.5073228444
  C        13.2237221875       -0.4026300384       -4.0345754841
  H         5.6336186238        8.6953516776       21.9120197907
  H         6.2232587591       10.1228193503       20.9288733936
  C         7.7746484888        9.0696544787       21.8962600788
  H        19.3613781431        5.1663447350        8.0692718234
  H        18.7142779431        6.7065493004        7.6570465733
  C        19.7009484030        5.7542406549        5.9979415059
  H         2.8994357746        8.4385086296        2.6837889827
  H         4.9195797378        8.9248016976        2.8746797342
  C         3.6699317913       10.0586600752        1.4599150235
  S        13.6988591903        1.1711578406       -4.7207061379
  C        13.3085963646       -1.5507091422       -4.9964295780
  H         8.6883945693        9.0801707579       21.1738708889
  H         7.9886887597        8.2106402778       22.5116079286
  H         8.0607618779       10.0435705667       22.4678216015
  H        20.6794552945        6.2737566727        6.1742406501
  H        19.7264627316        4.8061253125        5.5537896729
  H        19.3109111389        6.3815617602        5.2330102255
  H         3.3607061108       10.7438933950        2.2688353320
  H         4.5149585262       10.3859382064        0.8782416208
  H         2.7959289373        9.8408019735        0.8558283904
  C        13.9479786530        0.2676854433       -6.2374094560
  N        13.7329089822       -1.0700028281       -6.1792224860
  O        12.9227498486       -2.6606613203       -4.6894493246
  S        14.4519058192        0.9490501166       -7.7624023916
  C        13.6738728648       -1.9512258238       -7.2935670467
  H        14.0479121574       -2.9447071695       -7.0093860707
  H        14.3551553710       -1.4977100454       -7.9713101258
  C        12.2689753620       -1.9042883449       -7.8653635709
  H        11.6078461093       -2.3317540108       -7.0052869373
  H        12.2185679665       -2.5000634887       -8.8645670780
  H        11.6354974850       -1.0012538298       -8.0777052239
  H        -3.5592804313       15.1241916038       16.2295320206
  C        -3.2703156888       14.1407725355       16.3922959853
  H        -4.0638668101       13.6095833321       16.7378991065
  C        -2.2610043119       14.1792364741       17.5643598835
  C        -2.7011186586       13.4435491611       15.1411911319
  C        -2.8885247643       13.8643976271       18.9026358739
  H        -1.6525348750       13.3569142855       17.2900141903
  H        -1.8568469220       15.1751481766       17.5672541615
  H        -3.3137559279       13.2065616560       14.2806450214
  H        -1.8317694077       13.9847237905       14.7155863672
  H        -2.1969477160       12.4672317969       15.2429038236
  C        -1.8948079137       13.8441730385       20.0321353530
  H        -3.5044439359       12.9067900354       19.0136575359
  H        -3.7367356897       14.4335199855       19.3144136023
  C        -2.3473151261       13.8361406763       21.5013209841
  H        -1.3079562294       12.8153184270       20.0593334957
  H        -1.1456517755       14.7349880236       19.9761196030
  C        -1.3235137201       13.1252442329       22.3791060142
  H        -3.4003981616       13.3517388512       21.5023799255
  H        -2.5121379195       14.9074851124       21.8736636670
  C        -0.0337438009       13.8675590404       22.7859749301
  H        -1.8632163981       12.8678079338       23.2053650113
  H        -1.2469457656       12.1566720010       22.0146021165
  C         1.0804352253       12.9496161504       23.4422176345
  H         0.4661771859       14.2943667336       21.9370971610
  H        -0.1680349684       14.5881933044       23.5605244717
  C         1.4224307994       11.6987705201       22.6705661541
  C         0.5487343018       12.2498936728       24.5880995944
  C         2.3186969512       13.7352617477       23.7098561599
  C         1.2175073978       10.5455514003       23.4073847796
  C         1.9699284040       11.3633765967       21.4649537910
  C         0.6371978463       10.9002942032       24.6325726901
  C        -0.0155731173       12.7868497853       25.7849248247
  H         2.3869652801       14.5541623313       22.8502441891
  H         2.0436401711       14.4529984802       24.5542249598
  C         3.6075852678       13.0401658200       24.1839681744
  S         1.7014671423        9.0922032005       22.5688898837
  C         2.1126379347       10.0535281745       21.2598469365
  H         2.3534190215       12.0915730881       20.8040053685
  C         0.1997874031       10.2657460191       25.7769780695
  H        -0.0258939737       13.7983958501       25.7891008663
  C        -0.3955686238       12.1347688028       26.8948878520
  H         3.8275060049       12.1400068137       23.5508320017
  H         3.5043163377       12.6401629750       25.0707400858
  C         4.8608181143       13.9600280436       24.2648089701
  C         2.5135220113        9.2677127362       19.9712413633
  C        -0.3189459930       10.8266304330       26.9769747172
  H         0.3137753353        9.2679733321       25.8813835275
  C        -0.8030087311       12.5228374042       28.1853297624
  H         5.6710710996       13.4611647303       24.7394891846
  H         4.4853526174       14.9078136119       24.7977020220
  C         5.4414986899       14.2673758767       22.7581122886
  C         2.6154012385        7.9245703777       19.5868431663
  C         2.9645138626       10.1881424704       18.8383137252
  C        -0.7674693307       10.1598537242       28.2524427547
  C        -1.0012379316       11.4499603471       28.9882817313
  S        -1.0132703468       14.0435310821       28.9634011636
  H         6.0472846881       15.1347586766       22.8368959640
  H         4.6604624423       14.6812710825       22.1838695709
  C         6.0057752573       13.0481611466       22.2091297854
  N         2.3471562206        6.9797452462       20.5609414274
  C         2.9278099729        7.5039601838       18.3692151576
  C         3.2603974477        9.7009412602       17.5158514825
  H         2.9362956282       11.2105992201       18.9355927228
  C         0.3823660144        9.2890318104       28.9230657605
  C        -2.0204706230        9.3667532936       27.9205230711
  C        -1.4022836118       11.8104398459       30.2676303215
  C        -1.3763666141       13.1524863858       30.3890148429
  H         6.5431739514       12.5244994170       22.9301314082
  H         5.2824099791       12.3887650906       21.8190191691
  C         6.9529703596       13.3495040873       20.9994199283
  S         2.3229091847        5.6214932687       19.6438855338
  N         2.8393648559        6.1483482533       18.2143935413
  C         3.2988024943        8.2479467333       17.2330545313
  H         3.5022576279       10.5004861285       16.8746317049
  H         0.6713989297        8.6946826541       28.0900849002
  H        -0.0289002969        8.6054576848       29.5667526028
  C         1.6025663094       10.0841847681       29.4396073622
  H        -1.7851628683        8.5179358198       27.2587549132
  H        -2.2818984771        9.0479152568       28.9153868956
  C        -3.2263363684       10.2465744489       27.4710262214
  H        -1.6857403219       11.0852066201       30.8953374661
  C        -1.7531895627       14.0558793169       31.6676122772
  H         7.4223712367       12.4356318101       21.0392256496
  H         7.4395579082       14.1792679858       21.3107464274
  C         6.1608792402       13.4842541035       19.7594088117
  C         3.5116151160        7.7197143721       15.9204232824
  H         1.9909741054       10.7848423494       28.6806807782
  H         1.3664195763       10.6617478528       30.3734038380
  C         2.7767846665        9.2716391237       29.8859932112
  H        -3.0343331833       10.7841912907       26.6500063163
  H        -3.5315017957       10.8733908137       28.2432316691
  C        -4.4821369585        9.5149837237       27.1807391870
  C        -1.8899674319       15.4916538150       31.8611093920
  C        -1.9909393591       13.3094748974       32.9511228920
  H         5.4667470914       12.8069452007       19.5250519879
  H         5.6093984517       14.3429175784       19.8695822890
  C         6.9782927808       13.6623293677       18.4510511150
  H         3.3396282815        6.6070650151       15.9740630301
  C         3.7710232704        8.2596844059       14.6749694928
  H         3.4966796636        9.0586998627       28.9923259826
  H         2.4173365200        8.3808317956       30.5009120606
  C         3.6840958128       10.0659042257       30.9373473524
  H        -4.1675468978        8.7087768171       26.4328035319
  H        -4.8103472333        9.1178101384       28.2224841169
  C        -5.6584395789       10.3310406810       26.5904972184
  N        -1.7692935522       16.2793792999       30.7476053720
  C        -2.1271819895       16.1059262448       33.0223559862
  C        -2.2340989097       14.0272133580       34.1788888779
  H        -1.9107655871       12.3211482759       32.9983574035
  H         6.3724461641       13.9411195089       17.4998124655
  H         7.6387541406       14.4791831470       18.5582560355
  H         7.5332816335       12.7571483063       18.1555479149
  S         4.1131759117        9.8945981287       14.2819843133
  C         3.7593678173        7.3054828245       13.4558303395
  H         3.7211526419       11.0580670620       30.5409633779
  H         3.1226576537       10.1532198493       31.8774271608
  C         5.0104239594        9.3849425326       30.9974128970
  H        -5.2032923255       10.9709361220       25.8681345308
  H        -6.1219187644       10.9616762136       27.3423268253
  C        -6.5762620993        9.4419602182       25.8788519027
  S        -2.0252361132       17.8491034409       31.2968547006
  N        -2.2872259890       17.4916413173       32.8261859561
  C        -2.4249103451       15.5552793940       34.1944899460
  H        -2.2337788681       13.2867954267       35.0308005439
  C         4.3589523557        9.2969568156       12.6225068873
  N         4.1163619625        8.0091052466       12.4442264809
  O         3.6317796424        6.1436919558       13.6485605194
  H         5.6572355855       10.0344074344       31.4885200296
  H         5.4958405516        9.2231635057       30.1418145355
  C         5.0201106391        8.0684284785       31.8255303938
  H        -6.0433338461        8.9638430726       25.0956769162
  H        -7.0155445305        8.6108155637       26.4310886247
  C        -7.7824238288       10.4010187381       25.3368878760
  C        -2.6853506369       16.2830405131       35.3827382411
  S         4.8304868961       10.3325178058       11.3162128733
  C         4.2359134265        7.4245571386       11.0892230909
  H         5.6601200047        8.2167234076       32.6246302858
  H         4.1625945199        8.0023676819       32.5686230863
  C         5.3456388227        6.8111266533       31.1290308297
  H        -7.5200692922       10.7331487342       24.3616033968
  H        -7.6866739372       11.2326320918       25.9327643446
  C        -9.1533216904        9.7554672271       25.3959875377
  H        -2.5236069457       17.3958734885       35.1859711417
  C        -3.2003568437       15.8390502130       36.6341877948
  H         4.7963863117        8.0250659804       10.3035898038
  H         4.6881642701        6.3704814483       10.9649488789
  C         2.8840906799        7.1023653525       10.5100508398
  H         6.2731670681        6.8705741350       30.5905066442
  H         4.6293570928        6.5880182361       30.3690318417
  C         5.3127136957        5.5964603726       31.9780165203
  H        -9.7871470530       10.2154258524       24.8817965474
  H        -9.1182045759        8.8146140784       24.9415603176
  C        -9.7215920257        9.5978284114       26.8697489232
  S        -3.6302777638       14.3278460720       37.1604834664
  C        -3.3339279233       16.9538035452       37.7011940263
  H         2.1232154131        7.4801674203       11.2687402089
  H         2.6906303210        7.5799873317        9.5036012583
  H         2.9833837963        6.0373957021       10.3483485059
  H         5.7674102684        4.6836378322       31.4167634624
  H         4.2151144312        5.3235459305       32.0978679049
  H         5.8772571159        5.7054722225       32.9288091000
  H        -9.7470278159        8.5342324901       27.2740238739
  H       -10.7217763416       10.0239659510       26.9846909559
  H        -9.0120190339       10.2076433150       27.5286376866
  C        -4.0686999749       15.0743670989       38.7565392316
  N        -3.7583035307       16.3955336190       38.7752037238
  O        -2.9015759557       18.0753931241       37.5225577502
  S        -4.7542055946       14.2329201322       40.1339221645
  C        -3.9683706785       17.1186818809       40.0094812646
  H        -3.9708249093       18.2305151061       39.8638410047
  H        -4.8761625987       16.9844519837       40.5890355382
  C        -2.7025570749       17.0933073372       40.8707063958
  H        -1.9470585438       16.5608105303       40.2501164869
  H        -2.3233870382       18.1652285685       41.1674841568
  H        -2.8136038994       16.5442523720       41.8150176424
