352
i=
  H         3.4889429622        0.8282189917       12.1235285789
  C         3.1973773072        1.8846647158       12.0800622178
  H         4.0281460449        2.6541599224       12.1266739940
  C         2.3272437479        1.9714778455       10.8275130264
  C         2.4033347125        2.1427019222       13.3445852484
  C         3.1636787099        2.0427479945        9.5704692741
  H         1.8057100190        2.9777307551       10.8274749187
  H         1.5291310274        1.1831000814       10.7024257819
  H         1.9231045576        1.2368699619       13.8338585890
  H         1.5915771743        2.8193415343       13.2410129170
  H         3.0432593270        2.5441621522       14.1355456169
  C         4.0764540574        0.8223087284        9.2224991893
  H         2.5607538081        2.0888098207        8.6864664815
  H         3.7322916600        2.9560107882        9.7127966901
  C         5.0987715850        1.1435667203        8.0529860854
  H         3.4513658005       -0.0589028401        8.9763928514
  H         4.6249809592        0.4951648979       10.1410638175
  C         6.2407214000        2.1077713298        8.4111784197
  H         4.4116639551        1.5301300842        7.2658390267
  H         5.4986173425        0.2002340499        7.7451647165
  C         7.5191734091        1.4644260528        9.0885744335
  H         6.4959180565        2.7013271138        7.5021136047
  H         5.9877971825        2.8829728033        9.1607778945
  C         8.7265142594        2.4540744733        9.2550003945
  H         7.7462856951        0.4145201954        8.7192053093
  H         7.3227252036        1.2139712612       10.1021844055
  C         8.2865202599        3.7849601161        9.9105277822
  C         9.1064084290        3.1726426424        8.0317085331
  C        10.0139101062        1.8672411317        9.9691951614
  C         8.5797264033        4.8961861076        9.2020662019
  C         7.7940215117        4.0962862898       11.1565186356
  C         9.1178148634        4.5030983710        7.9576167928
  C         9.6163149789        2.5843391287        6.8713959856
  H         9.6990277939        1.4265773745       10.9382875990
  H        10.4363918699        1.0817761399        9.4077828421
  C        11.1094035510        2.8508307481       10.1856057968
  S         8.2765409924        6.3340397657       10.0258347959
  C         7.7263187564        5.4822850185       11.4291929910
  H         7.6582640505        3.2663621200       11.8394315931
  C         9.5245114410        5.1667240376        6.8491750967
  H         9.7431485021        1.5533311281        6.8700232530
  C        10.1501247327        3.2510810347        5.7935365549
  H        10.6868274551        3.7947968274       10.6386614585
  H        11.4429659874        3.1690527727        9.1927004483
  C        12.3266311997        2.2759105947       11.0539235833
  C         7.3018534061        6.1692488539       12.6288504946
  C        10.0476138017        4.5833409813        5.6972022634
  H         9.5141129286        6.2573383631        6.8611590854
  C        10.6188095698        2.9301479712        4.5168808618
  H        13.2021107671        2.9842227276       11.0019322876
  H        12.5778693602        1.2863911400       10.8552279055
  C        11.9203687844        2.3544303156       12.5216334269
  C         7.3557220316        7.5815461274       12.8884880108
  C         6.9348703203        5.3213732089       13.8124151605
  C        10.5677895071        5.3535300589        4.4847012104
  C        10.8091283745        4.0433104647        3.7309934999
  S        10.9564371039        1.4356698836        3.6937121076
  H        11.9159450977        3.4271868236       12.7432146248
  H        10.9984155622        1.9406571311       12.6835085672
  C        12.9771979080        1.7852828468       13.3938818512
  N         7.6315757043        8.6249880013       11.9832442976
  C         7.0711893393        8.0816708847       14.1956021030
  C         6.6913362517        5.8628394913       15.0612061202
  H         6.7518373061        4.2373634795       13.7125051924
  C        11.8744922566        6.0860977279        4.9485107122
  C         9.5083468951        6.2663152850        3.8008004980
  C        11.2118731632        3.6716382361        2.4795344447
  C        11.3286176688        2.3130831623        2.2775616877
  H        13.7791400169        2.4323488831       13.1220826820
  H        13.0312650676        0.7599650492       13.0351774781
  C        12.5396021393        1.7746681334       14.8277409508
  S         7.6370168648       10.0517810351       12.7775197926
  N         7.2292170288        9.4739396324       14.2435553042
  C         6.7225608862        7.2910597702       15.2737086373
  H         6.4465559809        5.1944735318       15.8732975321
  H        11.5973884001        6.7518278281        5.7416052267
  H        12.3336213423        6.6508112163        4.0886003971
  C        13.0248112941        5.2152091343        5.5022442436
  H         9.2821208765        7.1507471661        4.4659477597
  H         9.8913562240        6.6999760099        2.8569554018
  C         8.1663421617        5.5713732649        3.4694727384
  H        11.3394211090        4.4690422696        1.7718046029
  C        11.7110849926        1.6761022778        0.9890484338
  H        12.3100488619        2.7749455823       15.1531020121
  H        11.6680916175        1.2190514457       14.9616883384
  C        13.6164663831        1.1539620446       15.7719251661
  C         6.5537765640        7.9463923940       16.5043039328
  H        12.7906670299        4.9685915205        6.5091923929
  H        13.2471412395        4.2261522084        5.0248214259
  C        14.3423665941        5.9476084984        5.4270934890
  H         7.7129172227        5.2195821002        4.4384177883
  H         8.2863780630        4.7129448828        2.8446870510
  C         7.1341628180        6.4920026312        2.8571552294
  C        11.8377358715        0.2615538460        0.7709487032
  C        12.0200090041        2.5134695327       -0.2098498528
  H        14.5323755181        1.4432235871       15.3470658073
  H        13.4629321644        0.0921015767       15.6286970966
  C        13.4507345165        1.5945721715       17.1753263103
  H         6.3106565495        8.9985904279       16.4517952432
  C         6.2420079643        7.4424744429       17.7107262186
  H        14.3645918668        6.9229844806        5.8395247994
  H        14.6366825276        6.0234831436        4.3950681297
  C        15.4897561092        5.2463197214        6.1214712112
  H         6.7766582913        7.2058536013        3.6083781160
  H         7.4783518663        6.9900222223        1.9663050328
  C         5.9276450814        5.6892128257        2.4300859313
  N        11.6087187735       -0.6449857859        1.8186271076
  C        12.2536760632       -0.3464749252       -0.3874460631
  C        12.4189418886        1.8824250942       -1.4082771974
  H        12.0012592736        3.5485695625       -0.0581089074
  H        13.8113674944        2.5746256416       17.4591108278
  H        14.0168883020        0.8647975297       17.7344215221
  H        12.4081802112        1.5042507229       17.3649802421
  S         6.0718237115        5.8685711198       18.2143299742
  C         6.0477918504        8.4811815532       18.8040168720
  H        15.1262537967        4.9641887628        7.0443051279
  H        15.7452135702        4.2953185051        5.6535130345
  C        16.7916011711        6.0580198781        6.3442566294
  H         5.4394164555        5.3789886310        3.3475365535
  H         6.1645898613        4.8920131636        1.8030563301
  C         4.8325113999        6.5147210788        1.6305199062
  S        11.6443385503       -2.1288023812        1.1908133644
  N        12.2402020945       -1.7228936927       -0.2749255329
  C        12.5419515482        0.3866165495       -1.5440451315
  H        12.5414422286        2.4739306371       -2.3085234949
  C         5.8361195418        6.5134106294       19.8521093486
  N         5.7761713400        7.8359058004       19.9484390310
  O         5.9675871554        9.6952474810       18.6706666334
  H        16.9972043530        6.5053580383        5.4109747565
  H        16.6131884717        6.9426652158        7.0202267546
  C        17.9599280546        5.2522809853        6.8480783316
  H         5.3640745757        6.7898982012        0.7090122704
  H         4.0105554389        5.7794265606        1.3697117977
  C         4.3019162107        7.7556349570        2.3744242807
  C        12.8761483532       -0.3606672742       -2.7484448885
  S         5.4911870976        5.5964874646       21.3315176784
  C         5.7925421383        8.4779562487       21.3059527351
  H        17.6963404114        4.8329729028        7.8632828422
  H        17.9977409207        4.4554595994        6.0588556605
  C        19.2370580221        6.0762588974        6.9527526356
  H         4.5023371596        7.5832807181        3.4163759997
  H         3.2126392385        7.8635261890        2.2888202685
  C         4.9190165701        9.0778353117        1.9220651354
  H        12.7459217264       -1.4750122894       -2.5424685925
  C        13.3032897836        0.0709584405       -3.9671244198
  H         4.9796289223        8.0518791585       21.9064050985
  H         5.5051888282        9.4890899297       21.2748244792
  C         7.1881120243        8.5545300805       21.8963003406
  H        19.8431931850        5.8832657291        7.8194608831
  H        18.9757911294        7.1411657794        7.0855705552
  C        20.1185916451        5.9089850203        5.6979996294
  H         5.1816901916        9.6229934610        2.8324424124
  H         5.8577042912        9.0179078215        1.4100171956
  C         3.8398491034        9.8876578387        1.2149939185
  S        13.8264759729        1.5851308041       -4.4390962483
  C        13.4001242296       -1.0200168308       -4.9059496302
  H         7.7381325278        9.0649902036       21.1619155329
  H         7.6731304916        7.6182090560       22.2145963624
  H         7.3269624276        9.2928642673       22.6795245537
  H        19.4713075471        6.1585536102        4.7856126078
  H        21.0107944657        6.4910773657        5.7816318866
  H        20.4829187693        4.8835003038        5.6708631418
  H         4.2796836234       10.5617308479        0.4471453460
  H         3.1872920672        9.1885093425        0.7548576738
  H         3.2168173156       10.4079122177        1.9252672840
  C        13.9885881785        0.8301407157       -6.0281860144
  N        13.8517162952       -0.5044611404       -6.0585871954
  O        12.9333320326       -2.1593832140       -4.7746515376
  S        14.5960414080        1.6861994095       -7.5223207547
  C        13.8823027834       -1.3344804778       -7.2988333625
  H        14.1018444136       -2.4086865594       -7.0123926388
  H        14.8143538594       -1.0914802353       -7.9236579415
  C        12.5108933959       -1.3691313421       -8.0852488002
  H        12.3546924095       -0.5856684356       -8.8129124486
  H        11.7488248739       -1.3617713707       -7.2713539375
  H        12.5230120804       -2.2610987105       -8.7020734455
  H        -3.9451253062       14.8055904202       17.0316221035
  C        -3.8076123715       13.7468559796       16.7865710934
  H        -4.7923212599       13.3843545300       16.8788430951
  C        -2.8157032065       13.1963010673       17.7440338343
  C        -3.3505449084       13.5151374831       15.3671554146
  C        -3.3248549875       13.2289571381       19.1723512607
  H        -2.7621075159       12.1657778189       17.4557810949
  H        -1.7950631627       13.5411734647       17.6757538815
  H        -4.2400913521       13.5421769873       14.7455436673
  H        -2.6550028578       14.3406942314       15.0106792536
  H        -3.0598439456       12.4223550202       15.1483835970
  C        -2.2972637531       12.5824676773       20.0792256574
  H        -4.1437419221       12.5466607507       19.1426637912
  H        -3.7441240492       14.2234439554       19.5780088771
  C        -2.7212557438       12.8060296812       21.5104486960
  H        -2.2211032752       11.5679219930       19.7550877644
  H        -1.2912272915       13.0506086143       19.8273905647
  C        -1.4559266065       12.3674841463       22.3122735230
  H        -3.5742100985       12.0693502904       21.5783837980
  H        -3.0098430431       13.8048282510       21.6503653519
  C        -0.3288245482       13.3607162922       22.5216651145
  H        -1.7190470924       12.0736972234       23.2978092463
  H        -1.1418953255       11.4563884428       21.9155941410
  C         0.9032247249       12.7635767265       23.2983061546
  H        -0.0343695256       13.8660408369       21.6328971540
  H        -0.5823177089       14.2311954427       23.1291525118
  C         1.3086855755       11.5081916051       22.6127910080
  C         0.4477849441       12.0861854657       24.5506677413
  C         2.0987540400       13.7678066726       23.6201358325
  C         1.1397950476       10.4026573737       23.4621791508
  C         1.7306684354       11.0739151772       21.3764100966
  C         0.5970868980       10.7622677580       24.6888079809
  C        -0.0963570077       12.7545651174       25.6850023826
  H         2.3411385702       14.1297765405       22.5958912244
  H         1.6527470699       14.6055399582       24.2273683596
  C         3.3686786373       13.1337846095       24.2438629819
  S         1.4923668975        8.8941878298       22.7932581439
  C         1.9550246031        9.7460563725       21.2928344980
  H         1.9096889008       11.8450099306       20.5969230766
  C         0.2276041709       10.1169238714       25.8710894829
  H        -0.1443288556       13.7930446704       25.5969231440
  C        -0.4914881000       12.1267125762       26.8323437960
  H         3.7091121100       12.3856169350       23.5679046067
  H         3.2113363211       12.6752807334       25.2306945662
  C         4.4932219749       14.1123114151       24.4526035607
  C         2.4224174341        9.0361608775       20.0463872772
  C        -0.3229156482       10.7649240470       26.9874656458
  H         0.2535930338        9.0309513150       25.9274927116
  C        -0.8765544966       12.4865562853       28.0918494979
  H         5.1893994264       13.7152252800       25.1985181725
  H         4.0715533407       14.9860851311       24.9522031765
  C         5.2055882935       14.7066231923       23.2189742609
  C         2.3597595769        7.6286667461       19.8338085583
  C         2.8059675854        9.8294174609       18.8320835240
  C        -0.8552218011       10.0254476453       28.2397899721
  C        -1.0835501810       11.4228002098       28.8858304389
  S        -1.2079718610       13.9987052591       28.7561345007
  H         5.7684058022       15.6553865828       23.6129565095
  H         4.3982422377       14.9898521198       22.4625348260
  C         6.1421632088       13.6397663559       22.6597273835
  N         1.9951510023        6.6797453462       20.7947095789
  C         2.5334620871        7.0121303660       18.5959642906
  C         3.0212625379        9.2508722657       17.5885589851
  H         2.8033219795       10.8521690133       18.8999855974
  C         0.2774455259        9.3285070629       29.0199655874
  C        -2.1564831418        9.2160854154       28.1726920395
  C        -1.5357117657       11.8330615343       30.1516677813
  C        -1.6006319299       13.2119137201       30.2555190566
  H         7.1058526233       14.0643097307       22.3034371001
  H         6.3393946108       13.0485852599       23.5919822054
  C         5.5764666545       12.7193590800       21.4974334991
  S         1.9720233715        5.1865250582       20.1328586771
  N         2.4057599136        5.6277874334       18.6057914899
  C         2.7920946113        7.7958294700       17.4198847587
  H         3.2716428819        9.9120040256       16.7611824134
  H         0.5271123831        8.3638442501       28.5823216603
  H        -0.1229659000        9.0298738654       30.0197158358
  C         1.5804739223       10.1232523961       29.3163751651
  H        -1.8374523967        8.3662843673       27.5518338647
  H        -2.4856258501        9.0056960841       29.1770740329
  C        -3.3894363595       10.0574984521       27.5921293270
  H        -1.5304146117       11.1401518956       30.9800821351
  C        -2.0059481549       13.9748683739       31.4844874814
  H         4.5620521658       13.0044907958       21.3106439492
  H         5.6725217541       11.6645332335       21.8190061721
  C         6.3642284306       12.9348410642       20.1413611993
  C         2.9938023912        6.9949181713       16.2305283392
  H         1.9560158280       10.5484744594       28.3851744908
  H         1.3456134691       11.0588332559       29.8517910436
  C         2.7481432036        9.2988822330       29.9151151895
  H        -3.1362378572       10.4308024414       26.5965390312
  H        -3.6143403364       10.8580820298       28.2391702589
  C        -4.6123725099        9.1020793607       27.4015086324
  C        -2.0784902457       15.4233300189       31.5975975111
  C        -2.2549144137       13.2091751173       32.7551733514
  H         5.8769536059       12.2144491926       19.4418643784
  H         6.1404684431       13.8676376612       19.6959851741
  C         7.8575403904       12.6644272180       20.0777535486
  H         2.8828462739        5.9402841784       16.2812587251
  C         3.4001388514        7.3455598194       14.9162493073
  H         2.9141338896        8.4055210563       29.3354452720
  H         2.4823976620        8.9189682058       30.9046864199
  C         4.1639767165        9.9159516474       29.8850819371
  H        -4.3341432817        8.2851793144       26.6565422912
  H        -4.8459170541        8.5284487720       28.2905349084
  C        -5.8461965593        9.9336895504       27.0152705051
  N        -1.6722691998       16.3949541246       30.6724912819
  C        -2.4453124889       16.0613701131       32.7481351476
  C        -2.6844964197       13.9101766766       33.9345979124
  H        -2.1746451573       12.1762049701       32.7402043796
  H         8.0607820613       12.2326711003       19.1051969790
  H         8.3751327976       13.6476507265       20.1500956967
  H         8.1506319031       11.9557066281       20.8443298279
  S         3.6519333553        8.8822455254       14.3659409270
  C         3.5540746615        6.2227381097       13.9006936371
  H         4.3217360434       10.3489163673       28.9303309037
  H         4.3220356613       10.7975890489       30.5217876800
  C         5.3160662402        8.9312843056       30.1264608456
  H        -5.5137584871       10.8724588383       26.5262826646
  H        -6.3983126905       10.2014250488       27.9407651692
  C        -6.8439741692        9.1812646149       26.1654148888
  S        -1.7459190975       17.8667598606       31.3394716368
  N        -2.3575055129       17.4494209972       32.7271414815
  C        -2.7658529656       15.3916190708       33.9477348491
  H        -2.8557775511       13.4516331942       34.8620729887
  C         3.9852222184        8.1735220118       12.7915059277
  N         3.8963091821        6.8032973373       12.7091517887
  O         3.3806340705        5.0370179907       14.1510449038
  H         6.2863300526        9.5462468107       30.1021753629
  H         5.3666440547        8.3034152473       29.2704232558
  C         5.2794705634        8.1351897054       31.4186838482
  H        -6.3659870255        8.4657476834       25.4693676957
  H        -7.5492469796        8.6331315610       26.7949910565
  C        -7.6968112208       10.1123064975       25.2622770298
  C        -2.9336416496       16.1760467265       35.1470626473
  S         4.2273467611        9.0962006014       11.3194518196
  C         3.7699952129        6.0228739596       11.4462899042
  H         5.9720601904        8.6222577334       32.1153005983
  H         4.2704645125        8.0756315211       31.8648194826
  C         5.5473240673        6.6356288956       31.2683534899
  H        -7.1391815668       10.2049163327       24.3229319399
  H        -7.7611742110       11.1764095731       25.7118051688
  C        -9.1096928627        9.6294382398       24.9784996808
  H        -2.7464931525       17.2468578915       35.1147190953
  C        -3.2851152990       15.7539453264       36.4208923446
  H         4.2214632419        6.6238437483       10.6100272103
  H         4.1783301283        5.0058557344       11.4671583805
  C         2.2864619215        6.0206141581       10.9502902255
  H         4.6651770492        6.3037370361       30.7746204668
  H         5.6039753331        6.0799972569       32.1484335153
  C         6.8334216923        6.2160242169       30.4266493562
  H        -9.3755055339       10.0946384313       24.0113741945
  H        -9.0178335541        8.5536075065       24.7569430368
  C       -10.1848083672       10.0078416397       25.9396740599
  S        -3.8389194249       14.2814132299       37.0149541168
  C        -3.2671528990       16.8430603064       37.4410772109
  H         1.6842130532        5.4314927316       11.6777100305
  H         2.0062548722        7.1153972715       10.9264919798
  H         2.0105841579        5.5048311372       10.0047401827
  H         6.6774965328        5.2237805207       30.0021760368
  H         7.7946270819        6.2611346364       30.9806537961
  H         7.1467259270        6.9494082924       29.6340840084
  H       -10.2833646400        9.1946622392       26.6072293153
  H       -11.0507408850        9.9674668692       25.3098087650
  H       -10.0800898368       10.9022712635       26.5281629176
  C        -4.2094618873       15.1359750600       38.5022616424
  N        -3.9079014042       16.4726952241       38.5174339032
  O        -2.6662038722       17.9315748355       37.2909209512
  S        -5.1526757933       14.6655081485       39.8738119030
  C        -3.9704841482       17.3516642660       39.7447879366
  H        -3.9885027653       18.3296576300       39.2216688544
  H        -4.9674316993       17.4186059965       40.2494246061
  C        -2.7484715611       17.2143154478       40.5776576747
  H        -2.8866030439       16.4884801848       41.3086730040
  H        -2.0030023844       16.9005765938       39.8735591989
  H        -2.5756769289       18.1698274122       41.1490251035
