352
i=
  H         4.1748160600        1.1671001002       12.6313493875
  C         3.5758008925        2.0109093729       12.9072920850
  H         4.2944841629        2.5832953472       13.4262365619
  C         3.1026314516        2.5282024431       11.4850231592
  C         2.3323063642        1.6570622789       13.6951861284
  C         4.2520334148        2.6929039013       10.5807383913
  H         2.5422473108        3.5242119507       11.5177874726
  H         2.4549369210        1.7558234216       10.9910189604
  H         1.8719177497        2.6237284381       13.8821796010
  H         2.5756214973        1.1032466453       14.5742212707
  H         1.6527128841        1.1174104537       13.1557051740
  C         4.8860190392        1.4261857326       10.0907566035
  H         3.8573647647        3.3626539611        9.8425279002
  H         4.9213858540        3.4032654069       11.1616041034
  C         5.7576053968        1.5177735030        8.8383395898
  H         4.1629876494        0.7234566593       10.0551717064
  H         5.4247346641        0.9625781312       10.8977666512
  C         6.9328238436        2.5590909605        9.0095036443
  H         5.0896328644        1.8572644750        8.0564239887
  H         6.0865168384        0.5214593323        8.6016960819
  C         8.0865897474        1.9035185568        9.7166247466
  H         7.2058944596        2.8314260378        7.9615461984
  H         6.6211352341        3.4228691324        9.5436419471
  C         9.2946129746        2.8476673308        9.6509071178
  H         8.3956349181        0.8614470754        9.4896845099
  H         7.7710786697        1.9349637874       10.7534020788
  C         8.9593937858        4.1719461295       10.3186364292
  C         9.6020630711        3.5674019274        8.3578949153
  C        10.6115489835        2.2295841254       10.2750862548
  C         8.8826670936        5.2091868532        9.4354146679
  C         8.4502736781        4.5479053713       11.6035081886
  C         9.3993654727        4.9074085528        8.1736780325
  C        10.1287135892        2.9753461398        7.2278209589
  H        10.2968626132        1.5570493548       11.0802306409
  H        10.9643397753        1.5918912220        9.4941610532
  C        11.5636066763        3.3075303068       10.8732803514
  S         8.4041647046        6.6956944850       10.1686414255
  C         8.1744321349        5.8790169481       11.6920936197
  H         8.3257323344        3.8306362920       12.3181063410
  C         9.6882856114        5.5838136906        7.0070130914
  H        10.4231971743        1.9704141518        7.3056280170
  C        10.3202874791        3.5737919704        6.0291236649
  H        10.9883804646        3.6886916469       11.6855520643
  H        11.7859391933        4.0058633175       10.0333543998
  C        12.9433583886        2.8148306805       11.3585469297
  C         7.7568154523        6.5733140185       12.9735777536
  C        10.2093198036        4.9192556780        5.9168370913
  H         9.4641509237        6.6383997772        6.8494205371
  C        10.7170556671        3.1218377201        4.7576438000
  H        13.7106184397        3.2445644693       10.8363738826
  H        13.0696643047        1.7592061471       11.2196022808
  C        13.3051612470        3.1591445130       12.7982340646
  C         7.7440839909        7.9781988473       13.1932664197
  C         7.2290800382        5.7425469018       14.0801698728
  C        10.5535146059        5.5678296629        4.5681349081
  C        10.9245699888        4.2260019706        3.9581088206
  S        10.9737720169        1.5563108725        4.1252602756
  H        14.3939691984        3.2538316521       12.9407217467
  H        12.6968907596        4.0146543084       13.1363077905
  C        12.7936197837        1.9880698814       13.6332246216
  N         8.0388096328        8.9630485883       12.2066701254
  C         7.4099354687        8.5560866122       14.3775624467
  C         6.8939718278        6.3882695267       15.3238682888
  H         6.9253076114        4.6488622217       14.0067215558
  C        11.7797835520        6.4989512286        4.7717057303
  C         9.3311171617        6.1631099413        3.8445038269
  C        11.2579148048        3.7251341353        2.6645291494
  C        11.3397857399        2.3574050125        2.6064881531
  H        13.6005507397        1.2916503366       13.6912662951
  H        11.9207820300        1.4952001284       13.2893833729
  C        12.3747594207        2.3426331586       15.0338637836
  S         8.0424669250       10.4808629987       12.8729484122
  N         7.5983965816        9.9702506224       14.3375011630
  C         7.0999770691        7.8582480724       15.5545243128
  H         6.3867200670        5.8855862945       16.1310463764
  H        11.4580515963        7.2393699631        5.5363451057
  H        12.0043862159        7.0695553318        3.8404525697
  C        13.0064608371        5.7438905651        5.2222388697
  H         9.0054775176        7.0239130932        4.4789102766
  H         9.6561667841        6.5909382866        2.9130158441
  C         8.0978639446        5.2983664093        3.6231003889
  H        11.2144141209        4.3969221918        1.8110208259
  C        11.7219237178        1.4962581552        1.3898499869
  H        11.8434679383        3.3682703936       15.1569977891
  H        11.5561305405        1.6231869584       15.2432070312
  C        13.4091755854        2.0544874289       16.1781597475
  C         6.8116600318        8.5702324892       16.7859720348
  H        12.7366829414        5.2132095675        6.1467917881
  H        13.3566452789        5.0471313729        4.4751283992
  C        14.2783490881        6.5973821744        5.5388511204
  H         7.8275302205        4.6442117313        4.4933755635
  H         8.3470792998        4.4713335265        2.8983467099
  C         6.8641937400        6.1722877836        3.1762821033
  C        11.7796492051        0.1002403660        1.3438548977
  C        12.0692622356        2.1687193491        0.1358732685
  H        14.4006650325        2.5419410782       15.9811486870
  H        13.5945511779        0.9734574415       16.2748981336
  C        12.8091201414        2.4777964836       17.5760813976
  H         7.0655479188        9.5978326015       16.8145273782
  C         6.5947758780        8.1749572790       18.0653281056
  H        14.2089839846        7.4011469897        6.2365292150
  H        14.7523580703        6.8765948252        4.6289920180
  C        15.3214959293        5.6274897752        6.2012025692
  H         6.2333867340        6.2453106923        4.0295459169
  H         7.0739053498        7.1989814468        2.9358020005
  C         5.9932719053        5.4226422560        2.1505193313
  N        11.5961154343       -0.8320381016        2.3894923966
  C        12.1132859118       -0.5740950972        0.1365344686
  C        12.3966049892        1.5039321712       -1.0869719598
  H        12.1080526175        3.2471052498        0.1745583044
  H        12.2545696317        1.7282873186       18.0157794698
  H        12.1487134420        3.3591326102       17.5107533880
  H        13.5650122153        2.7590388474       18.3659291680
  S         6.1604386475        6.5452526604       18.5764922359
  C         6.4714118454        9.2386444907       19.0893686944
  H        14.7554927193        5.3372888340        7.1526321278
  H        15.5249910670        4.7514042963        5.6723445007
  C        16.6551068029        6.3485308017        6.6061769691
  H         5.8283814732        4.5356405011        2.7082415256
  H         6.5312198332        5.0868909013        1.1900768975
  C         4.6313467598        6.0541159391        1.8330891314
  S        11.8979434155       -2.3332862528        1.9137916268
  N        12.1320030671       -1.9191331509        0.3447574141
  C        12.3256710515        0.0255543823       -1.1504725833
  H        12.7381068442        2.0397206362       -1.8884981348
  C         6.1361122933        7.3415693704       20.1940636015
  N         6.0921385052        8.6856172871       20.2336100272
  O         6.3897771105       10.4132398329       18.8450771389
  H        17.0452372680        6.5954970395        5.6333660089
  H        16.3752510644        7.3284924947        7.0394782257
  C        17.4608116862        5.3721275653        7.4566426422
  H         4.0117147287        5.2254725747        1.5441769193
  H         4.2203336759        6.4052507357        2.7908904774
  C         4.6631314022        7.0974815014        0.6953246568
  C        12.6255980102       -0.7490755046       -2.3459367824
  S         5.4211785606        6.5336233735       21.5943058405
  C         6.0863846519        9.5374703519       21.4039124685
  H        16.8436958791        5.2426618194        8.2870850813
  H        17.5219277349        4.3656886341        7.0124411461
  C        18.8962187917        5.8079695319        7.7870001921
  H         4.5764058696        6.5525320616       -0.2204456312
  H         5.7151902159        7.4928560810        0.6830953290
  C         3.6865607933        8.2820820517        0.6882020988
  H        12.2084496429       -1.7552094691       -2.4130307903
  C        13.1966490363       -0.3933224094       -3.5670056049
  H         5.6473760623        9.0750700614       22.3325694382
  H         5.6106560663       10.5019663601       21.1721336276
  C         7.5951758064        9.7462457056       21.7744940875
  H        19.1931947510        5.1444021155        8.6099215174
  H        19.0472730950        6.7767949535        8.3099239973
  C        19.7364109643        5.6544358009        6.5405449412
  H         3.7580317740        8.9626156688       -0.1449884196
  H         2.6706582404        7.9657098910        0.6555346613
  C         3.8684635283        9.2078797491        1.9025656383
  S        13.7421088293        1.2320194140       -4.0413639625
  C        13.3262396934       -1.4732804844       -4.6002562999
  H         7.9026778495       10.6094599932       21.1393042712
  H         8.2050448434        8.9617715246       21.4920013700
  H         7.5611492354        9.8633440699       22.8350753005
  H        19.2742676126        6.1884767780        5.7193228898
  H        20.7108922098        6.1426498347        6.6742977329
  H        19.7504518804        4.6323693276        6.1695413562
  H         4.6767699883        9.8853311621        1.6892383039
  H         3.0492273433        9.8614786256        2.0120774846
  H         4.0851198767        8.8363391866        2.8814904891
  C        14.0142988707        0.3986376953       -5.6255576446
  N        13.8472464754       -0.9654079942       -5.7130484194
  O        12.9788034463       -2.6687623816       -4.4486680916
  S        14.7743299212        1.1742215635       -7.0356529895
  C        14.1887408168       -1.7722738590       -6.8837840723
  H        14.4894419838       -2.7852922939       -6.5925868353
  H        15.0972579070       -1.4066624414       -7.3392848977
  C        13.0077979541       -1.5475376367       -7.9018086978
  H        13.1922694931       -0.6847878573       -8.5435558290
  H        12.1278818023       -1.2609263669       -7.3404822057
  H        12.8677095108       -2.5086742833       -8.4912981441
  H        -2.6169943329       14.9683969898       16.2534805788
  C        -2.7981258940       13.9210659808       16.3842794890
  H        -3.8612674782       13.7087293509       16.7156686014
  C        -1.8651677564       13.5386166217       17.5108100212
  C        -2.5146611873       13.2590495461       15.0361857074
  C        -2.3336389548       13.8770184312       18.9384891540
  H        -1.6249809564       12.5075852845       17.3722333649
  H        -0.9415470278       14.1624726434       17.2806246048
  H        -1.7632783736       13.7684866229       14.4648532456
  H        -2.2505713289       12.1682098903       15.0966362772
  H        -3.4570334350       13.3579988429       14.4778598819
  C        -1.5422622933       12.9875582337       19.9017348975
  H        -3.4162304873       13.7565370275       18.9603572197
  H        -2.1104711953       14.9617569728       19.1881522406
  C        -2.0817530413       13.3557397671       21.2966698577
  H        -1.6924048826       11.9935914600       19.6576398907
  H        -0.4258818994       13.1343715449       19.7629728017
  C        -1.0463729967       12.7829339018       22.2882083299
  H        -3.1022793490       12.8659914602       21.3997270709
  H        -2.4479552896       14.3879216860       21.2898818514
  C         0.1983271343       13.7193911629       22.4776979137
  H        -1.6187325500       12.6430820893       23.2056982433
  H        -0.8658760090       11.8135082105       21.8940472115
  C         1.3466798032       13.0251641700       23.1761734781
  H         0.4032720583       14.0688216807       21.4441852153
  H        -0.0228478623       14.6420974878       23.1036787487
  C         1.7296023498       11.7241024587       22.5228461318
  C         0.9804547190       12.3749251593       24.4669811274
  C         2.5975897996       14.0032744592       23.3028482831
  C         1.5687954996       10.6389774293       23.3653708770
  C         2.1742303398       11.2896153619       21.2763036078
  C         1.0930889742       11.0084797750       24.6146644502
  C         0.4735303690       12.9372620471       25.5598622149
  H         2.8412471824       14.2658083832       22.2974359901
  H         2.3688600931       14.9825031686       23.8144417506
  C         3.8423377306       13.2408560266       23.8790874689
  S         2.0049115391        9.0599430239       22.7002034774
  C         2.2352818175        9.8810956112       21.1761668851
  H         2.3578951917       11.9468092066       20.4627935106
  C         0.7652446224       10.3272493141       25.7436208335
  H         0.3852039331       14.0097503334       25.6448707279
  C         0.0756485787       12.2971573119       26.7213863714
  H         4.1255623557       12.5450309900       23.1018306567
  H         3.4737945746       12.6076338832       24.7000310121
  C         5.0294632333       14.0935408225       24.3333457449
  C         2.5603202339        9.1011929230       19.9589149241
  C         0.1698723940       10.9645298945       26.8573423469
  H         0.8023957045        9.2607169608       25.7766094022
  C        -0.3204332564       12.6753493575       27.9808601461
  H         5.6366269808       13.5651511010       25.0383823264
  H         4.5823307657       14.9235991668       24.8792927704
  C         5.8954696870       14.5609681535       23.0783061733
  C         2.4139016866        7.7335782133       19.6688235021
  C         3.0380159861        9.8992136097       18.7991736419
  C        -0.2585164309       10.2907413230       28.1259043531
  C        -0.5786347621       11.5377134887       28.7502355359
  S        -0.6669617828       14.1484703327       28.7690086328
  H         6.6534967475       15.3305973898       23.3783154917
  H         5.2881293460       15.1835295380       22.4020460276
  C         6.6135336419       13.4248882472       22.2784012591
  N         1.9716880526        6.7461202941       20.6031851910
  C         2.8398828850        7.1822607637       18.4958200894
  C         3.2809930655        9.3952513191       17.5089962817
  H         3.3255413667       10.9256472057       18.8747236581
  C         0.8538310119        9.4485757367       28.7225857692
  C        -1.5444234962        9.4329967264       27.8146184709
  C        -1.0393029789       11.9287847327       30.0575015583
  C        -0.9939795112       13.2907742007       30.1890555650
  H         7.7025637231       13.3979427883       22.4098462789
  H         6.2916174114       12.4760239900       22.7089235575
  C         6.2798431431       13.4497180443       20.8550338916
  S         1.9156390311        5.3571971407       19.7951677421
  N         2.5837670722        5.8455393898       18.3801139561
  C         3.2234395058        7.9130116413       17.3461101558
  H         3.5597261275       10.1049386364       16.7778277682
  H         1.1092032101        8.6889435155       27.9545904417
  H         0.4946546348        8.9511606170       29.6222619254
  C         2.0289854747       10.3013388602       29.1799793238
  H        -1.2452622237        8.5754403652       27.2632467840
  H        -1.9316708903        8.9900761054       28.7594012066
  C        -2.6666134553       10.2056597883       27.2135772431
  H        -1.3370060441       11.2231225038       30.8636171094
  C        -1.3539103577       14.0383675457       31.4487914203
  H         5.7615464454       14.3366878793       20.6339525678
  H         5.6268147722       12.6274934370       20.6462691541
  C         7.5518150812       13.4834794124       20.0821170943
  C         3.3106361220        7.1674748271       16.1478547923
  H         2.4830995309       10.6859934492       28.2442221415
  H         1.7284207336       11.1082063354       29.8819987273
  C         2.9521524062        9.3730451766       29.8262208048
  H        -2.5621362006       10.5367864363       26.1901394860
  H        -2.9780860816       10.9860483406       27.8828457503
  C        -3.8864194327        9.3640596578       27.2415264138
  C        -1.5005527391       15.4117968939       31.6735939091
  C        -1.6787931319       13.2141398312       32.6826633221
  H         8.2249307817       14.3561166218       20.2184524911
  H         8.1875892563       12.7071998091       20.3012113017
  C         7.2452086522       13.5045751846       18.5598759558
  H         3.3501494066        6.1575574737       16.2456714008
  C         3.6548792300        7.5681171659       14.9011162784
  H         3.4048227365        8.7529615214       29.0908373315
  H         2.4400239370        8.7353325575       30.5342151080
  C         4.0100908770       10.1494212872       30.5711308137
  H        -3.8501094268        8.6802765859       26.4431174353
  H        -3.9486556523        8.8361034546       28.2353245942
  C        -5.1387217639       10.2594298236       27.1529726780
  N        -1.3093092961       16.3191074493       30.6906801793
  C        -1.8918213717       16.0092567072       32.8247114607
  C        -1.9376301817       13.8431484218       33.9061814887
  H        -1.6417114301       12.1528501447       32.5781580086
  H         8.0047666603       12.7745888988       18.0532689513
  H         6.1800203524       13.1672496248       18.3001695018
  H         7.4408331812       14.4895240086       18.1657636792
  S         3.9548573307        9.1744108579       14.4360654648
  C         3.7620901567        6.5376377289       13.8240139464
  H         3.8687046386       11.0698733095       29.9559341096
  H         3.7092130872       10.3038955785       31.6188281394
  C         5.3655489268        9.5657705605       30.2941827912
  H        -5.2201625635       11.1602007285       27.7485086825
  H        -5.8569733984        9.5530760098       27.5846918894
  C        -5.4556424341       10.4455444994       25.6756176302
  S        -1.4734982902       17.7926027527       31.3271380758
  N        -2.0636624141       17.4002685330       32.7414950501
  C        -2.1284587481       15.2923783861       34.0284749437
  H        -2.2056146449       13.2483230612       34.7997785370
  C         4.1989931697        8.5183462390       12.7713944060
  N         3.9763418474        7.2072470783       12.6583303015
  O         3.4381097199        5.3582989824       13.8611894645
  H         5.9972278589       10.3952980409       30.4953765267
  H         5.5139722849        9.4242824829       29.2264857622
  C         5.6953287032        8.2739768533       31.0499103894
  H        -4.6931091111       11.1406535426       25.2564494711
  H        -5.3601961121        9.4900794918       25.1424238557
  C        -6.8877029813       10.9064341639       25.4654391611
  C        -2.5241216510       16.0059169079       35.1574315378
  S         4.7748159914        9.4142671308       11.3524843517
  C         3.9843317664        6.5725154099       11.3489585330
  H         6.4471244430        8.5098422137       31.7653315369
  H         4.7618199571        8.0132518197       31.6327443663
  C         6.3201449557        7.2519807642       30.0946714256
  H        -6.9856123580       11.3121511240       24.4458874204
  H        -7.0549664576       11.7351000105       26.1080482542
  C        -7.8618688906        9.8014823952       25.6612231117
  H        -2.3610626975       17.0730835301       35.1322573740
  C        -3.1599916186       15.6340094028       36.3255498798
  H         4.8109738498        6.9381695416       10.8376903937
  H         4.1734503793        5.5054319802       11.5084276422
  C         2.6224082466        6.6554334662       10.6135754413
  H         7.2339490391        7.6548574507       29.6933318127
  H         5.6990918781        7.0232383789       29.2022390888
  C         6.8180694461        6.1006661029       31.0000797655
  H        -7.9328970080        9.0960989783       24.8587180083
  H        -7.6376157673        9.3238468275       26.5984742581
  C        -9.2434300640       10.4773536572       25.8532078900
  S        -3.8380341066       14.1220096202       36.7533218989
  C        -3.3946034335       16.6493172605       37.3605791050
  H         1.8052349157        6.3113360039       11.1567937152
  H         2.4831023145        7.7231656128       10.3311779666
  H         2.6523098856        6.1290892303        9.7227677496
  H         7.2010798418        5.3453737728       30.4057897644
  H         6.0126059379        5.7894647774       31.6496163631
  H         7.6064126205        6.3842911248       31.7157452290
  H        -9.4295865463       11.1093078261       25.0236714511
  H        -9.2498216271       11.0559550563       26.7772786969
  H       -10.0749018776        9.8137362936       26.0550497688
  C        -4.3437999838       14.8792240664       38.2793421993
  N        -4.1084239611       16.1915402986       38.4190964007
  O        -2.6988286740       17.6526483302       37.4128857052
  S        -5.4104111701       14.0997432950       39.5109929335
  C        -4.1283803510       16.9066346183       39.7232522207
  H        -4.1915581767       18.0431012541       39.5172132110
  H        -5.0392904751       16.7539408501       40.2630849243
  C        -2.8830986332       16.6557625657       40.4762771640
  H        -2.7358651468       15.5806556177       40.6748790411
  H        -2.0042654531       16.9506040283       39.8485814071
  H        -2.8483030517       17.2662037501       41.3648105359
