352
i=
  H         2.5643009827        3.8434354171       12.3110367227
  C         2.8574374626        2.8326818245       12.5207191767
  H         2.0185239439        2.2707601476       12.1237610666
  C         4.2093815929        2.5672653890       11.9091179924
  C         2.7731793226        2.5303848160       13.9916121367
  C         4.1038499565        2.7466934346       10.3867634773
  H         4.5434600904        1.5451106521       12.1623959102
  H         4.9599766120        3.1921908373       12.3129035650
  H         2.0580902206        3.2153878814       14.4851382562
  H         3.8094049457        2.6700264907       14.4033920621
  H         2.4364688856        1.5001445659       14.1653571447
  C         4.6657876453        1.4958737356        9.6281827356
  H         3.0067293760        2.8582235559       10.1342101412
  H         4.7050561762        3.6337249591       10.1857873647
  C         5.2876713399        1.8485054538        8.3264150057
  H         3.8436141273        0.7928483170        9.4188999278
  H         5.3494817597        0.9088742544       10.2125038840
  C         6.6045303218        2.7131716962        8.3648050531
  H         4.5408851923        2.2652624261        7.6324150987
  H         5.5334945018        0.9678769537        7.7999234727
  C         7.8287759370        2.0318196983        9.0510694089
  H         6.9430323187        2.8532044452        7.2971760619
  H         6.4254136407        3.6911507482        8.7325118165
  C         9.0223872095        2.9869094537        9.1884455466
  H         7.9907947063        1.1245603193        8.5036006388
  H         7.4382104526        1.7016437036       10.0306401556
  C         8.6727267853        4.2584187082        9.7998420778
  C         9.4239102697        3.6968860251        7.9525790803
  C        10.1342139479        2.3619610733       10.0477839388
  C         8.9614970836        5.3819169280        9.1168100340
  C         8.2622866022        4.5803939151       11.0965656450
  C         9.3894171840        5.0503446207        7.8243636615
  C         9.8813034445        3.0562748591        6.8567492549
  H         9.7380517611        2.1905266561       10.9895396692
  H        10.3796931564        1.3243985675        9.6415536295
  C        11.4030631398        3.2579272359       10.1368030666
  S         8.6087285201        6.8204600471        9.9398435880
  C         8.1858463972        5.9247603229       11.3339419393
  H         8.3011509577        3.8109829724       11.9113296942
  C         9.8693375364        5.6727109088        6.7325472086
  H         9.9374175577        2.0021996833        6.8229944608
  C        10.2725603107        3.6799320536        5.7176744824
  H        11.1377963834        4.2311342687       10.5563310412
  H        11.8106130043        3.4265946545        9.1015446243
  C        12.5380614153        2.6148999652       10.9959464356
  C         7.7430948667        6.5050654674       12.6373243728
  C        10.2894999285        5.0415165843        5.6070969985
  H         9.9886489176        6.7612175489        6.8154369276
  C        10.6843048243        3.2399093506        4.5095417216
  H        13.5122309723        2.9933959917       11.0006228287
  H        12.6425548884        1.5517925495       10.6496438091
  C        12.0686629028        2.6870983918       12.5002184739
  C         7.6191347065        7.8604544879       12.9269170560
  C         7.5048759936        5.6745512804       13.8795972485
  C        10.8232369527        5.6909550485        4.4288341433
  C        11.0106231567        4.3095074968        3.6420436699
  S        10.9907488208        1.7698425517        3.7895041856
  H        11.7184005323        3.7027184558       12.6363816473
  H        11.2014643371        1.9799317519       12.5937517765
  C        13.1785006153        2.5714631403       13.4977641455
  N         7.6742409020        8.8609600922       11.9485232022
  C         7.4144796989        8.3582452313       14.1887963086
  C         7.2984016042        6.1927988226       15.1734733610
  H         7.4426490732        4.6028875899       13.8789498290
  C        12.1050013168        6.5129561420        4.6266646688
  C         9.7599199489        6.4817945942        3.7220492919
  C        11.2612462249        3.9394787048        2.2858114253
  C        11.3095530917        2.5832156307        2.3264540771
  H        13.6085567115        3.6253662912       13.5835632826
  H        14.0067010396        1.9292930914       13.2515059770
  C        12.6325371333        2.2381694021       14.9261980854
  S         7.6735069890       10.2945561029       12.7496378823
  N         7.4034393960        9.6944681039       14.2448867846
  C         7.1992404897        7.6649811020       15.3851043360
  H         6.9944268189        5.5518844833       15.9735625768
  H        11.8967298111        7.2888513118        5.3841746362
  H        12.4442333118        6.9348155072        3.6869369669
  C        13.1753543667        5.5958857201        5.1604562390
  H         9.5566661451        7.3316091910        4.3731133925
  H         9.9903559134        6.7926390419        2.7488964527
  C         8.4325694991        5.7441222248        3.5428533703
  H        11.4970697837        4.6887146345        1.5413033198
  C        11.7581009384        1.7264098153        1.2131701690
  H        11.6763374186        2.6645431172       15.0895023212
  H        12.3859315509        1.1861859161       14.8634160005
  C        13.4724506668        2.3130605534       16.1293153061
  C         6.9888597690        8.4022973771       16.5630239527
  H        12.8191324585        5.1185996893        6.0743053144
  H        13.4493463089        4.7042244677        4.5777974522
  C        14.4351171614        6.4742413682        5.4862431530
  H         8.0440821341        5.5143971364        4.5444940206
  H         8.5579633868        4.7942457103        3.0245266660
  C         7.3374995949        6.6271295188        2.7977284985
  C        11.6866971306        0.3333804734        1.1492509545
  C        11.9829172056        2.3451011919       -0.0952845605
  H        13.8141658351        3.3352969952       16.0091747418
  H        14.3516806012        1.7246414190       16.0275558846
  C        12.8305962589        2.2471135113       17.4628102274
  H         6.9981257363        9.4686063959       16.5332972551
  C         6.6006248050        7.9945800605       17.7900260636
  H        14.2859450096        7.3499975422        6.1291750600
  H        14.8611939804        6.8760682359        4.5441318320
  C        15.5012575328        5.5611823658        6.1181898375
  H         7.0797865186        7.5131263630        3.3336594049
  H         7.8021773063        6.9192782198        1.7975632547
  C         6.1233920534        5.8069653548        2.4196516908
  N        11.2688601278       -0.5502779984        2.0998546366
  C        12.0350861739       -0.3674196380        0.0088042845
  C        12.3710138536        1.6650199026       -1.2380314859
  H        12.1054574673        3.4132613072       -0.1122858966
  H        13.0537707972        3.0596721387       18.0920333907
  H        12.8633108031        1.2537138493       17.9402726880
  H        11.7674620673        2.4253681344       17.2705344749
  S         6.2322536089        6.3243238043       18.2446737049
  C         6.5536544505        9.0365109839       18.9161667000
  H        15.1097579634        5.1638213067        7.0530476992
  H        15.6669626744        4.7057254905        5.5011950212
  C        16.8482474220        6.2673510174        6.2419306168
  H         5.7875288159        5.1545602229        3.1974010673
  H         6.4535664696        5.1029075890        1.6207630896
  C         4.9168736296        6.5665882302        2.0611431995
  S        11.4849422746       -2.0906454900        1.6519723662
  N        12.0286458306       -1.7419664527        0.1493944444
  C        12.4062576738        0.2026157605       -1.2219622629
  H        12.5414235643        2.2151004321       -2.1751141039
  C         5.8996585087        6.9572348072       19.8387919005
  N         6.1744982139        8.3000041590       19.9913414559
  O         6.8167232579       10.2358292609       18.9046082995
  H        17.3688753024        6.4423536822        5.2747364527
  H        16.7418217706        7.2784535786        6.6040928393
  C        17.6784058881        5.4327516988        7.1965147103
  H         4.0913933528        5.8091569278        1.9216738953
  H         4.7461509766        7.2336552274        2.8785647079
  C         5.0603180082        7.3018554872        0.6862722167
  C        12.8307532556       -0.5877024464       -2.3122814937
  S         5.5807540909        6.0574275357       21.2701599839
  C         6.0940839770        8.9756222689       21.2482466091
  H        17.2504157346        5.2663590121        8.1588189878
  H        17.8419780534        4.4295662291        6.8567336078
  C        19.0457072036        6.1767843527        7.4995765571
  H         4.9398187718        6.5161283737       -0.0317057201
  H         6.0226397208        7.6735343036        0.5251284399
  C         4.1520953665        8.4992377390        0.5583208584
  H        12.7687414620       -1.6042444380       -2.1704669591
  C        13.2592181626       -0.2538578478       -3.5730823012
  H         5.2938324010        8.6492507965       21.9292676873
  H         5.8239809086       10.0796396682       21.2119366530
  C         7.4870384400        8.9412059275       21.8736173812
  H        19.6739216103        5.6662067870        8.2316355285
  H        18.8420297049        7.1320802224        8.0470617029
  C        19.8319105181        6.3372564339        6.2666460664
  H         4.1870119242        8.9291396732       -0.4649462171
  H         3.2096037734        8.1062571494        0.7807242319
  C         4.6312402866        9.7900343992        1.2873087316
  S        13.6723604799        1.2364825980       -4.2915586572
  C        13.2572187193       -1.3729694377       -4.5475947486
  H         8.2142978967        8.4797953910       21.1885160858
  H         7.4030281650        8.3892366323       22.8353671183
  H         7.8327630513        9.9520889882       21.9387561986
  H        19.4484630748        7.1614504894        5.6296926324
  H        20.9001975776        6.4345708276        6.3704845430
  H        19.7089979066        5.4489836533        5.6379202930
  H         4.4845715252       10.6487858449        0.5685938690
  H         4.0948154651        9.9383539021        2.1983327176
  H         5.6887634862        9.7402466410        1.5012999862
  C        13.9614011028        0.4281690218       -5.8325088793
  N        13.7548588112       -0.9051298236       -5.7623477362
  O        12.9823253728       -2.5447919266       -4.2909271408
  S        14.7984843654        1.1194812054       -7.2488765204
  C        13.7521660698       -1.7011124862       -6.9149244374
  H        13.8874798233       -2.7344936096       -6.6995468736
  H        14.7246314819       -1.3699200190       -7.4204998114
  C        12.4789957898       -1.6589631260       -7.8307396340
  H        12.4449299601       -2.2919633600       -8.6929347330
  H        12.3389839683       -0.6483888548       -7.9628508789
  H        11.5707112516       -1.9076265473       -7.3354897110
  H        -1.7468093243       15.1867673998       15.5761229575
  C        -2.5217097202       14.5816029016       15.9803793938
  H        -3.1573984620       15.2484787661       16.5411399030
  C        -1.9252829254       13.5099070342       17.0083094517
  C        -3.2105777163       13.8252755627       14.7664080202
  C        -2.4448433040       13.6645580051       18.4103370979
  H        -2.0716668866       12.5168437032       16.6514212873
  H        -0.8331114544       13.6915283975       16.9898700924
  H        -3.8114443074       14.4898740990       14.1044218592
  H        -2.4710148926       13.3577093286       14.1218728929
  H        -3.8508716073       13.0058908085       15.0880654841
  C        -1.5817687747       14.3423737442       19.4163400384
  H        -2.6733053146       12.6666499281       18.7005165502
  H        -3.4364067976       14.1309366122       18.4083230714
  C        -2.0649626353       14.2180450837       20.8869665480
  H        -0.6410997757       13.9752496771       19.2204202751
  H        -1.4390278617       15.4140719059       19.0770950385
  C        -1.1519167199       13.5060851074       21.8191053080
  H        -3.0977812062       13.8485101409       20.9527688423
  H        -2.1472207431       15.2467702362       21.2803987618
  C         0.0834356197       14.3517329024       22.2614735338
  H        -1.7223451332       13.0729956833       22.6494027769
  H        -0.7881686899       12.6263758790       21.2861173570
  C         1.2125929073       13.6000442894       22.9319416442
  H         0.3858466348       14.7432528107       21.2641300117
  H        -0.1534325244       15.1828942399       22.8921972117
  C         1.4800631898       12.2860797859       22.1708693128
  C         0.6832468763       12.9202711865       24.1565229304
  C         2.4303458911       14.4722140438       23.1889525156
  C         1.1623586216       11.1934408082       22.9587874121
  C         2.0332146066       11.9002822361       20.9520041898
  C         0.6502270156       11.5359567612       24.1624990536
  C         0.3151899201       13.5059935871       25.3797625649
  H         2.5635760435       14.9818844870       22.2253179797
  H         2.1069374795       15.2654953807       23.9017328006
  C         3.5734369298       13.6213798449       23.6848807589
  S         1.7124638968        9.7640959584       22.1973050457
  C         2.2842403759       10.5740708616       20.8552035900
  H         2.3862364488       12.7187952536       20.3130638861
  C         0.3504485293       10.9231494675       25.2829093029
  H         0.5438542673       14.5722723768       25.4213200452
  C        -0.0695031779       12.8190957872       26.5147901165
  H         3.7974372301       12.9168801109       22.8660685629
  H         3.2995849362       13.0587636121       24.6103474063
  C         4.9564195433       14.2592279496       24.0252571194
  C         2.7801442126        9.8689374773       19.6229977462
  C         0.0144653153       11.4735776478       26.5510243619
  H         0.3356270882        9.8694122360       25.2106594782
  C        -0.4909978032       13.1613859682       27.7563518141
  H         5.4498228142       13.5840465073       24.6871688886
  H         4.6431126338       15.1872146070       24.5134723616
  C         5.7035587419       14.5841424919       22.7126644137
  C         2.6042489848        8.4767958645       19.3765420892
  C         3.4197588022       10.6637433477       18.5102149332
  C        -0.4447568060       10.7176236498       27.7992214960
  C        -0.7404794697       12.0289528836       28.5160915591
  S        -0.7916724513       14.6124317517       28.6018760871
  H         6.4171855407       15.3731904116       22.7427541768
  H         4.9332309049       15.0093299098       22.0579561277
  C         6.3526273810       13.3846855117       22.0141195905
  N         2.1535412646        7.5012812039       20.3104317236
  C         2.9005459681        7.9336836023       18.1684047807
  C         3.6022938276       10.0619492267       17.2845318682
  H         3.5315872825       11.6775549252       18.6784131623
  C         0.8584560728       10.0678253741       28.5066114872
  C        -1.6561772758        9.6841162871       27.6672967249
  C        -1.1432620739       12.3748649052       29.8111215938
  C        -1.1664125277       13.6922913519       29.9988099386
  H         7.4390730531       13.4768327898       22.0490705466
  H         6.0802767748       12.5054896855       22.5223983987
  C         5.8362260886       13.2825798204       20.5150167107
  S         2.4024788274        6.0208576503       19.6104625636
  N         2.6688235928        6.5253008630       18.0833090774
  C         3.2711930335        8.6530188564       17.0897193606
  H         4.0234763764       10.6685972747       16.4902509117
  H         1.3096115729        9.4368272496       27.8157420754
  H         0.4697405488        9.4535813592       29.2513710834
  C         1.9336215414       10.9999303078       29.0604627859
  H        -1.3380541605        8.7639914250       27.2482939586
  H        -1.8966112457        9.3924752391       28.7044883017
  C        -2.9324216384       10.2769131415       27.0446828372
  H        -1.3034001252       11.6304807716       30.5100091655
  C        -1.3852167069       14.4634577104       31.3083933816
  H         4.9112985717       13.8762910978       20.4235121259
  H         5.5724015787       12.2520313823       20.2991004405
  C         6.9038687607       13.7791818506       19.5543500916
  C         3.7783796533        7.8865678956       15.9543283577
  H         2.2678130296       11.5504919688       28.1658646815
  H         1.4592411294       11.7223978199       29.7152523860
  C         3.0108342292       10.1051332905       29.6189142157
  H        -2.6521524484       10.7704332880       26.1271279640
  H        -3.2190356102       10.9754314375       27.7377074289
  C        -4.0431270989        9.2543736683       26.7356080736
  C        -1.5181390899       15.8161569173       31.4723730015
  C        -1.6997347708       13.5833087489       32.4960292619
  H         7.1971299457       14.7642841567       19.7761734924
  H         7.7476717986       13.1155504281       19.7257710782
  C         6.5502785747       13.5394937453       18.1289483336
  H         4.0423236893        6.8869400231       16.0392664018
  C         3.9977986513        8.2826444710       14.6969572723
  H         3.3785668368        9.4643596120       28.8034540395
  H         2.5880381836        9.5440707406       30.4795409339
  C         4.1563228530       10.9429341586       30.2748732548
  H        -3.6917011176        8.7283478425       25.9162396623
  H        -4.1751197166        8.5694263143       27.5032058679
  C        -5.3516778560        9.8351648686       26.5053927059
  N        -1.3823800603       16.7927965658       30.4652049133
  C        -1.7907074422       16.4412985953       32.7073820576
  C        -1.9643154459       14.1648197760       33.7821823141
  H        -1.6069037663       12.5331824437       32.5750887838
  H         5.7605222198       12.8060070059       17.9413317042
  H         6.2705975636       14.4472559993       17.6237757821
  H         7.4100744977       13.1642319645       17.6075506392
  S         4.0979441264        9.8518832547       14.0296560091
  C         4.2288631047        7.2197681027       13.6677099212
  H         4.1954364144       11.8094213391       29.7185375199
  H         4.0315027265       11.1986154084       31.3383800794
  C         5.4769988175       10.1453994973       30.1089140247
  H        -5.3880341149       10.6552582356       27.1608693295
  H        -6.2265054463        9.2237891895       26.5975065220
  C        -5.5191073913       10.5168776087       25.1192890032
  S        -1.6978835712       18.2354916724       31.0432862123
  N        -1.9317277587       17.8122294511       32.5942937694
  C        -2.0900663257       15.6766161435       33.8826983265
  H        -2.0751027011       13.5334871685       34.6936127652
  C         4.2624025117        9.1181102093       12.4710817385
  N         4.4713107674        7.7752549138       12.4798663092
  O         4.0572376164        6.0476485518       13.8994236257
  H         6.2787143012       10.8545460306       30.4845369312
  H         5.6690888497        9.9764768928       29.0053366403
  C         5.5917539397        8.8745276481       30.9424920725
  H        -4.6272415206       11.1401194518       24.9374073038
  H        -5.4989182653        9.7542979362       24.2992691255
  C        -6.6015481045       11.4914113076       24.9002357233
  C        -2.3470645050       16.4280020488       35.0925912735
  S         4.7143088233       10.1364438506       11.0866945663
  C         4.5434871196        6.9101519845       11.3491182327
  H         5.7958219049        9.1968133532       31.9758275480
  H         4.6235656146        8.3935943852       31.0935041308
  C         6.6799594661        7.8446840707       30.4489978567
  H        -6.5301704798       12.2672710845       24.1244524851
  H        -6.6189858609       12.2487382243       25.6736628604
  C        -7.8359834775       10.7595652050       24.6889979041
  H        -2.0596839520       17.4141360037       35.0368880755
  C        -2.8771118828       16.0966473706       36.2782794226
  H         5.1444461822        7.3714585896       10.5864666623
  H         4.9681753100        5.8833445224       11.5699757199
  C         3.1564772208        6.5705557690       10.7254033012
  H         7.6790236028        8.3136371445       30.4608680290
  H         6.4870265266        7.5449025128       29.3948770540
  C         6.6759225512        6.5012039667       31.2711591087
  H        -8.4011390114       11.1550908817       23.8871072602
  H        -7.6336189713        9.7822834899       24.2826137087
  C        -8.6820025706       10.5790551226       25.9502043272
  S        -3.5914880281       14.5805387235       36.7160281757
  C        -2.9463278072       17.1028394517       37.3266028335
  H         3.0207857764        6.8567402079        9.6789613968
  H         2.9063990858        5.4834838681       10.8393743713
  H         2.4398808981        7.1686235303       11.2686627898
  H         7.3973570788        5.7926374689       30.9046827832
  H         5.7196365473        6.0537608453       31.1438538413
  H         6.8643143928        6.7894177699       32.2897887677
  H        -9.2760929114       11.4155037963       26.2249348561
  H        -8.0537727921       10.5081482524       26.8977730021
  H        -9.2445375775        9.5887137464       25.9381156765
  C        -3.9297958784       15.3442222919       38.3430352769
  N        -3.4945743100       16.6247847429       38.4684140643
  O        -2.5751768404       18.2602663168       37.1902852793
  S        -4.7650344047       14.5714493745       39.7586104266
  C        -3.4696352537       17.4628562445       39.6762616755
  H        -3.6543668472       18.4955815219       39.4276084919
  H        -4.0921817070       17.1923772862       40.4469817555
  C        -1.9545351291       17.4443493120       40.2172112142
  H        -1.9619388293       17.9685319453       41.1788247549
  H        -1.6081591796       16.4058154720       40.5450762763
  H        -1.2272206214       17.8160061865       39.5425024086
