352
i=
  H         3.7452107622        3.6322402042       12.9473238367
  C         3.1294814294        2.6645409787       13.0338859788
  H         2.2765939262        2.8249322877       13.6046507578
  C         2.8221110076        2.0564044534       11.6666934853
  C         3.9068137600        1.7088611137       13.9089921852
  C         4.0033474899        2.2266099762       10.6334186915
  H         1.9747044431        2.5272296691       11.1687151175
  H         2.6038068515        1.0258369496       11.8243626429
  H         4.6792586306        1.1506561957       13.3384107719
  H         3.2952035210        0.9315253280       14.3487057327
  H         4.4476923652        2.1680657601       14.6996274784
  C         4.1583568766        1.1898888502        9.5680543494
  H         3.7536902489        3.1675815032       10.1442700420
  H         4.9180645239        2.4470468611       11.1643569340
  C         5.1182457186        1.5234051659        8.3893475786
  H         3.2774956448        0.9149714796        8.9824536835
  H         4.4472023253        0.2403292750        9.9530717113
  C         6.3593414329        2.5041052743        8.6202188763
  H         4.4587148995        2.0212985592        7.7429023654
  H         5.4103463948        0.6210384605        7.8434383762
  C         7.5216104988        1.7924474532        9.3343842821
  H         6.5731068132        2.9839187793        7.6483386763
  H         6.0183346502        3.3935324617        9.2194296124
  C         8.7742753672        2.6831014533        9.5729613914
  H         7.8179681994        0.9040214206        8.7354932064
  H         7.1049237643        1.4629361454       10.3174490852
  C         8.4767441460        4.0464365664       10.2075639483
  C         9.2358841941        3.3908592851        8.3115882695
  C         9.9182230103        1.9291105718       10.3621449960
  C         8.7155667674        5.1410854726        9.3707694734
  C         7.9346710660        4.4430203901       11.3923089491
  C         9.1267205532        4.7288528904        8.1493068660
  C         9.6546442378        2.7935312334        7.1391472800
  H         9.5821950630        1.6217031604       11.3307489044
  H        10.1803199536        0.9323298594        9.9574992258
  C        11.2009535911        2.8035939942       10.5063142231
  S         8.3490007691        6.6251840488       10.0464307777
  C         7.8510958372        5.8046358827       11.4603172960
  H         7.5759499215        3.7222544467       12.0466125010
  C         9.5370454183        5.3347369565        7.0206930996
  H         9.6255625105        1.7471663394        7.1412546419
  C         9.9454168737        3.3809115058        5.9360302931
  H        11.1137719690        3.8269959087       10.6374389032
  H        11.5752708806        2.5736462552        9.5174902114
  C        12.1950505889        2.2523276226       11.4931848928
  C         7.2186751911        6.5049041792       12.6717081514
  C         9.8675994194        4.7185809706        5.8194443930
  H         9.4556668132        6.4061348828        7.0131260788
  C        10.2937158646        2.9386120428        4.6423493937
  H        13.0905195832        2.8767403056       11.5070432824
  H        12.5640488140        1.1945976360       11.1213592532
  C        11.6345304081        2.3892776831       12.9550945900
  C         7.2892157909        7.8914619094       12.9411991383
  C         6.6247991634        5.7300380445       13.7816656893
  C        10.2575937577        5.3843269311        4.5192184919
  C        10.5136285901        4.0238625102        3.8484309002
  S        10.5834134264        1.3924657641        3.9710332165
  H        11.2511942008        3.5110249035       13.0459737338
  H        10.8567683132        1.6569497325       13.1061499725
  C        12.6591425277        2.1661367638       14.0158840006
  N         7.5753117538        8.8835444011       12.0056433516
  C         7.0819523412        8.4647068332       14.1740798250
  C         6.3716201051        6.2607100138       15.0484090791
  H         6.6250251036        4.6505315924       13.6957885174
  C        11.6197021588        6.2315314576        4.7270944120
  C         9.1403802715        6.2193837336        3.9224190778
  C        10.9921175433        3.6180700758        2.5976993115
  C        11.0371108194        2.2382303141        2.5328964262
  H        13.2908553865        3.0374586219       14.0144908788
  H        13.3536640416        1.3008401378       13.9601790249
  C        11.9743141186        2.1469210551       15.3592972515
  S         7.7526685902       10.2978705009       12.8292106942
  N         7.3197094835        9.8410759071       14.2791256533
  C         6.6127733741        7.7257155391       15.3233799986
  H         5.9429808912        5.5874646047       15.7270866549
  H        11.4796735012        6.9470347977        5.5103286788
  H        11.8112882382        6.8017702004        3.8498311072
  C        12.8899466983        5.3900134688        5.1047746690
  H         8.5827442800        6.5527953016        4.7616364979
  H         9.4971030788        7.1005368467        3.4547469257
  C         8.1006409363        5.5294695455        3.0484996944
  H        11.2035014707        4.2971293062        1.8002858160
  C        11.4555579865        1.4954833411        1.2958494682
  H        11.2843546928        2.9472857914       15.4426872917
  H        11.4375380910        1.2101113843       15.5097380732
  C        13.0023452150        2.1297944758       16.4605395093
  C         6.4775927567        8.3446919839       16.5765764591
  H        12.6024462481        4.6235727943        5.7841190582
  H        13.2977491777        4.9022799662        4.2470967345
  C        13.9549186771        6.2390860010        5.6067456976
  H         7.5487734388        4.8306659383        3.7408683671
  H         8.4673614823        4.9644570790        2.2428201458
  C         7.0090505095        6.4316606907        2.5865193774
  C        11.5345067159        0.0621558219        1.1366044391
  C        11.7597025658        2.2938487970        0.0923049142
  H        13.9111393710        2.6114189458       16.0545875619
  H        13.3921486757        1.1182587791       16.6741500170
  C        12.6140504362        2.8847461957       17.7138731084
  H         6.6528308538        9.4160781354       16.5485593723
  C         6.2923228125        7.9052230436       17.8702972705
  H        13.6069541251        6.9664551455        6.3581640504
  H        14.4177986639        6.7647630375        4.7833093958
  C        15.0100640001        5.2601449842        6.2202357551
  H         6.5086340797        6.7446204778        3.5235344444
  H         7.4104478323        7.3132928595        1.9960209335
  C         6.0412787397        5.7179748019        1.7385185565
  N        11.2938887486       -0.9330764492        2.0967040948
  C        11.8668356587       -0.5335743427       -0.0543012876
  C        12.1431887891        1.7041549827       -1.0997012139
  H        11.8877111206        3.3547524352        0.1428455536
  H        13.4555053395        2.9004898443       18.3987539234
  H        11.7001885921        2.3929543767       18.1415410232
  H        12.3736742408        3.9962073099       17.6438409946
  S         6.1591634947        6.2516319642       18.2412772433
  C         6.2094900079        8.8837197560       18.9755137246
  H        14.4919052796        4.7749655703        7.0352944438
  H        15.3327381270        4.5493814258        5.4592449164
  C        16.2556148057        5.8923663507        6.6573812411
  H         5.9746430730        4.6539988087        2.0920723749
  H         6.4968757588        5.6986385487        0.7709775327
  C         4.6491851339        6.3142035064        1.6234970875
  S        11.5446803021       -2.4292321993        1.5278101490
  N        11.8373524347       -1.9504772429       -0.0006575127
  C        12.0924818077        0.2455878252       -1.2374715294
  H        12.4591044145        2.3388034991       -1.8737154174
  C         5.6820179570        6.8262093577       19.8391844105
  N         5.8135243467        8.1553492234       20.0628594623
  O         6.1736297780       10.1211720556       18.8049610328
  H        16.7962037015        6.3458563621        5.7572429566
  H        15.8966148775        6.6770761414        7.3105508764
  C        17.2276432288        4.9751564024        7.4031593177
  H         4.5133812719        6.5625629685        0.5995318264
  H         3.8496963798        5.6286444294        1.8443353419
  C         4.2472948369        7.5688019986        2.5060342265
  C        12.4419242865       -0.4120127563       -2.4498050726
  S         5.1406421303        5.6893918235       21.1686024331
  C         5.6335883995        8.7444341960       21.3644411443
  H        16.8115266805        4.4924687618        8.3174585261
  H        17.5217646530        4.1422561286        6.7606882977
  C        18.4843572532        5.7152294754        7.8800307216
  H         4.5181187843        7.4993451172        3.5079849574
  H         3.1649574709        7.5790180288        2.5922333411
  C         4.7443863806        8.8863168956        1.9263881097
  H        12.1397026204       -1.4791083162       -2.3694631993
  C        12.8851728520       -0.0219134968       -3.6971025329
  H         5.0514593279        8.1882180868       22.0352490343
  H         5.0808272789        9.7111994276       21.2892516439
  C         6.9921886482        9.1033720738       22.0181853384
  H        18.8497271280        5.3092589197        8.8283653962
  H        18.1389310187        6.7483910109        8.1157124705
  C        19.4784796748        5.6437614894        6.7042899018
  H         4.5339336600        9.6463530873        2.6549667185
  H         5.8450877353        9.0250233165        1.6365200176
  C         3.8788552100        9.4202630507        0.7502781332
  S        13.4247565911        1.5043094267       -4.1405184375
  C        13.1259987837       -1.1642797289       -4.7013880104
  H         7.7920069023        8.5504303780       21.4543315662
  H         7.0095501448        8.7568980730       23.0924568779
  H         7.1752838862       10.1225631202       21.8669550282
  H        19.1297955071        6.4632550991        5.9794630205
  H        20.5148964902        5.7042374454        7.0445050825
  H        19.4091189612        4.7816787865        6.0859084373
  H         2.9785317121        9.8283710208        1.1428157052
  H         4.4236561719       10.1322853559        0.1001228802
  H         3.6828402804        8.5129019400        0.1857831812
  C        13.8411977809        0.6954754979       -5.7570990441
  N        13.7804656921       -0.6823266386       -5.7741259677
  O        12.8014800011       -2.3200693893       -4.5446335773
  S        14.4747618902        1.6077790901       -7.1537606440
  C        14.0532220803       -1.4060781071       -7.0199916814
  H        14.2999765840       -2.4389003955       -6.7869425991
  H        14.9296178639       -0.9621080339       -7.5349249030
  C        12.8487374973       -1.2939063218       -7.8441123071
  H        12.7096862440       -2.2544835965       -8.3206485219
  H        12.8843456221       -0.4642174670       -8.6004666938
  H        11.8959042877       -1.2091050166       -7.3462117065
  H        -2.4703307826       12.1853257603       17.3012785674
  C        -2.4175919104       13.2892940468       17.1004904392
  H        -1.4573844722       13.7119437523       17.3837356931
  C        -3.5704582767       13.9178728020       17.8977597022
  C        -2.6228225514       13.2785305370       15.5730902189
  C        -3.7905690845       13.3451410992       19.3429972702
  H        -3.4128720749       15.0248276898       17.7992200930
  H        -4.4948249598       13.6874931066       17.3670886539
  H        -2.5631477546       12.3170476657       15.1361388949
  H        -3.5105184054       13.8187105743       15.1933250187
  H        -1.7664534467       13.8453298656       15.1015322839
  C        -2.4764594631       12.9145083435       19.9750190529
  H        -4.4445128258       12.4642404133       19.3376252064
  H        -4.2141944604       14.0819797096       20.0266466261
  C        -2.5255393432       12.9706093260       21.4707983383
  H        -2.3335099478       11.8830248282       19.7085103045
  H        -1.6998717647       13.5482446130       19.5989943902
  C        -1.1951888782       12.4151515519       22.0516255015
  H        -3.4311850811       12.4668157476       21.7941543241
  H        -2.6239724536       13.9651496570       21.7518085328
  C        -0.1983443890       13.5373148956       22.6159226214
  H        -1.4572067285       11.6558375284       22.8019944529
  H        -0.7894608646       11.8767149009       21.2468537665
  C         0.9427177386       12.8564378076       23.3750276431
  H         0.1627113020       14.2117096533       21.8751760687
  H        -0.6830731693       14.1908132825       23.3459558413
  C         1.3717408087       11.5589246080       22.5990037064
  C         0.4728195975       12.0626393804       24.5817011662
  C         2.1493705386       13.7833482819       23.6657357979
  C         1.1473500772       10.4386346238       23.3896983928
  C         1.9137251519       11.3075788378       21.2801155046
  C         0.6305483180       10.7807040255       24.6479103389
  C         0.0147299873       12.6121246167       25.7897806457
  H         2.2412314048       14.2967560099       22.7333667174
  H         1.8540528924       14.4112173766       24.5364580541
  C         3.4041431670       12.9865050162       24.0109604357
  S         1.7188918692        9.0388663152       22.6006691967
  C         2.1045397564        9.9390225852       21.1216200674
  H         1.9900235893       12.1200604213       20.5434608185
  C         0.2369379454       10.0251317625       25.7410514280
  H        -0.0936964418       13.6510688777       25.8173684527
  C        -0.2908712568       11.8811963751       26.9147053507
  H         3.7191276001       12.4636212055       23.1140324570
  H         3.3881540480       12.2982544725       24.8847640662
  C         4.4935755326       13.8409616822       24.5619235963
  C         2.4959901303        9.2083954308       19.8154364029
  C        -0.2033658647       10.5466402073       26.9449522848
  H         0.2603264736        8.9770466719       25.6968442866
  C        -0.7918889109       12.2213972548       28.1693014325
  H         5.3147001626       13.2909832863       25.0432016280
  H         4.1865327894       14.4830004641       25.3650355370
  C         5.0766081795       14.6730066949       23.4304163935
  C         2.4376132707        7.8371331592       19.5136424768
  C         2.8764091528       10.0879581092       18.6920946964
  C        -0.6513859995        9.8128309183       28.2749943429
  C        -1.0609078663       11.1176435803       28.9500149455
  S        -1.1085812629       13.7306637376       29.0176752252
  H         5.8057144692       15.3727929685       23.8400992829
  H         4.4047683795       15.3593038732       22.9848379599
  C         5.7087843016       13.7852788886       22.3220609767
  N         2.1644230196        6.8051791608       20.4488916498
  C         2.6205748115        7.3031757870       18.2809537780
  C         3.2054037857        9.5648048742       17.4552763713
  H         2.9433131005       11.1543688966       18.8688873078
  C         0.6178863326        9.1632352552       28.8652029358
  C        -1.8148422257        8.8666037103       28.0994895383
  C        -1.5501863983       11.4807491194       30.1843981684
  C        -1.3899421266       12.8308928881       30.4479496660
  H         6.7485896676       13.9254798510       22.0507732734
  H         5.5930435089       12.8130780254       22.6589809565
  C         4.9503935078       14.0646899171       21.0046816979
  S         2.1142875717        5.3489837338       19.6272375397
  N         2.4541361743        5.9224905327       18.1661587796
  C         3.0570023169        8.0681470867       17.1726303999
  H         3.4749718452       10.2140694462       16.6798871189
  H         0.9001517658        8.3655299973       28.1814427013
  H         0.3877281085        8.5638685562       29.7672321006
  C         1.8264524234       10.0601466278       29.1702791259
  H        -1.4999970537        7.9764404484       27.6586696504
  H        -2.1786234020        8.5499858690       29.0755275959
  C        -3.1521362722        9.5189790201       27.5052844228
  H        -1.8714885935       10.7272459554       30.8896937046
  C        -1.7058742129       13.5726433653       31.6909878036
  H         5.2365762413       15.0576412893       20.8522072861
  H         3.8743231686       13.8934698067       21.1567582025
  C         5.1990845486       13.1448172774       19.8575221170
  C         3.1963155891        7.5118250619       15.8681949657
  H         2.1757987582       10.6429638003       28.2669521129
  H         1.4272262150       10.7670397474       29.9295502319
  C         2.9333096630        9.2375594335       29.8604753529
  H        -2.9570049052       10.2926289758       26.7878937173
  H        -3.6254514307       10.0235451312       28.3709867842
  C        -4.1738557748        8.5453050078       27.0352226525
  C        -1.8870212643       14.9491009240       31.8707818552
  C        -1.9345876582       12.8280278683       32.9729135129
  H         4.8077427711       12.1858512245       20.1151853850
  H         4.5068642900       13.4561745235       19.1129870454
  C         6.6425731943       13.1218208976       19.5123144078
  H         2.9489807183        6.4660221095       15.8435089640
  C         3.5483702723        7.9882592732       14.6698516184
  H         3.4110327404        8.7130360815       29.1221355200
  H         2.5446859031        8.5802295843       30.6521864373
  C         3.9702168329       10.1503275807       30.6307512924
  H        -3.8244373602        8.1612410535       26.0880184891
  H        -4.2288795041        7.6602009357       27.6805162641
  C        -5.5913563712        9.1271811656       26.9310983104
  N        -1.6959714410       15.9862564209       30.8886858262
  C        -2.1515511929       15.5987354115       33.0786857843
  C        -2.1624138195       13.3925016292       34.2303977197
  H        -2.0019726978       11.7339272500       32.8666828943
  H         6.7948849029       12.5518253131       18.5204771178
  H         7.1116825678       14.0745838966       19.3097478278
  H         7.2559609744       12.7507166320       20.2839754330
  S         4.0299029463        9.5474754680       14.1044849608
  C         3.4027982662        6.9962474641       13.5557482531
  H         3.8858479586       11.1679166310       30.3223342444
  H         3.6703255540       10.1096591165       31.7063592795
  C         5.4456150529        9.7892499073       30.4296581486
  H        -6.0094981533        9.5497725945       27.7903277813
  H        -6.2521947772        8.2645947911       26.8704567926
  C        -5.6717826276        9.9645890253       25.6658928146
  S        -1.7493486339       17.4637093173       31.5639954403
  N        -2.2058049853       16.9866267635       33.0496268234
  C        -2.3971533731       14.8445663118       34.2834456764
  H        -2.3142935169       12.7826918903       35.1320408793
  C         3.9285768883        8.8734857940       12.4697430395
  N         3.7956259643        7.5559057400       12.4205860810
  O         3.1577347542        5.7969394533       13.7065918679
  H         5.9450807956       10.4254405771       31.0814038241
  H         5.8611576218        9.8922953860       29.4760121914
  C         5.6582686734        8.4020948879       31.1359918775
  H        -4.8017390305       10.5277086698       25.4749942030
  H        -5.6126046638        9.2903008054       24.8255898286
  C        -6.8602767106       10.8286967417       25.4994813282
  C        -2.8228066539       15.5832384259       35.4616488538
  S         4.4987361959        9.7913913445       11.0997617114
  C         3.8509094238        6.6887295006       11.1638224927
  H         6.2602943205        8.6343506199       32.0315295075
  H         4.7091576250        7.9720214510       31.5676470110
  C         6.3453665383        7.3120404700       30.2586581996
  H        -6.5553110175       11.6998907930       24.8704303766
  H        -6.9782522702       11.3415718515       26.3919978611
  C        -8.1365005752       10.1751122845       25.0550696398
  H        -2.6945814787       16.6375536312       35.4509255667
  C        -3.3138305497       15.0858557036       36.6283030781
  H         4.5867098828        7.0620454230       10.4607502923
  H         4.0367054198        5.6993153422       11.4127020536
  C         2.4434032084        6.7068389671       10.4271458255
  H         7.0863159926        7.6596466754       29.5310550894
  H         5.5675336586        6.8841087254       29.5746999008
  C         6.8174025934        6.1202167821       31.1400196767
  H        -8.3138279539       10.5242468922       24.0729764350
  H        -8.1105326040        9.1322730706       24.9380180507
  C        -9.3088218647       10.3828421601       26.0109020236
  S        -3.7655016447       13.4548680768       36.9948550517
  C        -3.5273539817       15.9908001986       37.7297654113
  H         2.3462960999        5.9695705795        9.6643026601
  H         1.5939652395        6.4160118731       11.0555846594
  H         2.1590486782        7.6765432128        9.9518038289
  H         6.6722397002        5.1451511940       30.7362936117
  H         6.3050157820        6.1021568960       32.0659630484
  H         7.8000145537        6.2915702552       31.3487296786
  H        -9.3699451421       11.4482199306       26.1227751333
  H        -9.1084713668        9.9410719690       27.0007566190
  H       -10.1850943270       10.1710839949       25.4599445133
  C        -4.1953623587       14.0187286449       38.6212544343
  N        -4.1138886865       15.3699437156       38.7140804898
  O        -3.1953298741       17.1850250868       37.6712807945
  S        -5.1324352972       13.0559699064       39.7589195152
  C        -4.5907900498       16.1031918026       39.9018590689
  H        -5.0842560096       17.0241780542       39.4667058687
  H        -5.3523360358       15.6029246716       40.5032266593
  C        -3.4498165568       16.5182972742       40.8385357220
  H        -3.8447638512       16.8797382818       41.7941544473
  H        -2.7606051570       15.6530776797       41.0567651582
  H        -2.9193707718       17.4634323606       40.5066522943
