352
i=
  H         2.8587312484        1.3415726111       13.2716730146
  C         3.6375544992        1.4644024936       12.4867177935
  H         3.7709526762        0.4648031552       12.0991263890
  C         2.9536906728        2.3661360630       11.4503733184
  C         4.9257971830        2.1020649169       12.9878911062
  C         3.7497062297        2.5031480532       10.0565435036
  H         2.7436746772        3.3561074673       11.9093007293
  H         1.9561841559        1.9548765377       11.2062719359
  H         5.8486610409        1.8024615166       12.4232513966
  H         5.1346504405        1.8469686188       14.0118279132
  H         4.9714853082        3.1980998438       12.8390057737
  C         4.3440994699        1.1902795221        9.4531807472
  H         2.9263178162        2.8884373514        9.4740717462
  H         4.4063225357        3.2739708692       10.1379012665
  C         5.0803759530        1.3746979945        8.1063231549
  H         3.5310622542        0.4825276999        9.3383897451
  H         4.9701915415        0.7033235686       10.1981544163
  C         6.3120699007        2.1968496846        8.2153682555
  H         4.3277711953        1.7264766491        7.4042043815
  H         5.3651099791        0.4000329995        7.6784294808
  C         7.4407801386        1.4079947574        8.9199881492
  H         6.5971963117        2.3816749814        7.2187909474
  H         6.2642080625        3.1532036925        8.6491886710
  C         8.7111827449        2.3005949869        9.2335365419
  H         7.7912638128        0.6978098274        8.1723863907
  H         7.1627346911        0.8123598432        9.7779324913
  C         8.3903341905        3.5982233474        9.9229644924
  C         9.2076610678        3.0046004934        7.9875674139
  C         9.8444165773        1.4861694890        9.9692865883
  C         8.7033463588        4.7321448493        9.1269342820
  C         8.0123150734        3.9396653764       11.1974180965
  C         9.2890090655        4.3578109885        7.9120915853
  C         9.6434018272        2.3784271345        6.8249789526
  H         9.6593053763        1.1153229509       11.0218852314
  H        10.0840512448        0.6272424322        9.3829567708
  C        11.0684070562        2.4342007722       10.3115561062
  S         8.4276494420        6.1945269382        9.9712483487
  C         7.9077577150        5.3169283069       11.3823764540
  H         7.7761238357        3.1004326476       11.9378564103
  C         9.7792932103        4.9890277023        6.8050223954
  H         9.6366662468        1.3006602061        6.8371353586
  C        10.1485973195        2.9535308462        5.7165494382
  H        10.7766395730        3.4455837870       10.5475256820
  H        11.7096988290        2.3755657126        9.4719867579
  C        11.8658351461        2.0875243433       11.5405803593
  C         7.6507677022        5.9634842688       12.7430656248
  C        10.1760393069        4.3464876473        5.6248387110
  H         9.8272578768        6.0689141547        6.8537304732
  C        10.6476921023        2.5400491018        4.5204979603
  H        12.9231268580        2.6022426039       11.4778289884
  H        12.1134372553        1.0566225617       11.4564531016
  C        11.0805457893        2.4486958376       12.8554542015
  C         7.7426257154        7.3167303843       13.0205410489
  C         7.2966166782        5.0863994442       13.9130792677
  C        10.7394845141        4.9719632245        4.3755481612
  C        10.9542553763        3.6140556318        3.6890080777
  S        10.9922093168        1.0224786268        3.8355915147
  H        10.6209566204        3.4358729202       12.7425015415
  H        10.3809424197        1.6119245067       13.0702274304
  C        12.1030360962        2.5072214661       14.0404735904
  N         8.0214221224        8.2788184427       12.0603494380
  C         7.3970859863        7.8842573333       14.2455510072
  C         7.0329169190        5.6435870442       15.1716214715
  H         7.1516610590        3.9662925319       13.8581539391
  C        11.9344846894        5.8373241108        4.5663842574
  C         9.6884161649        5.7389007336        3.4993972409
  C        11.4875119356        3.1657761075        2.4316018346
  C        11.3377228478        1.8262265849        2.3211835758
  H        11.7100272696        3.2868358676       14.7602241630
  H        12.9496055299        3.1059168719       13.7586996661
  C        12.4367968872        1.1570836202       14.7606962553
  S         7.7557473234        9.7740724611       12.7130239301
  N         7.2627499988        9.2613167631       14.1798453533
  C         7.1658149441        7.1302326086       15.3707480086
  H         6.9292725878        4.9713607901       16.0389159846
  H        11.6603966649        6.6347913747        5.2813287589
  H        12.2580196684        6.3414716882        3.6605692149
  C        13.1012915563        5.0900745398        5.1975564830
  H         9.2187524708        6.5918960467        3.9693303994
  H        10.2910164570        6.3197017322        2.7877833806
  C         8.6374690642        4.8586609355        2.8538865008
  H        11.6838411129        3.9227591751        1.7374689580
  C        11.7605565179        1.0088808923        1.1909679832
  H        11.5051006182        0.6574611548       15.0290590339
  H        13.0201625400        0.6116358860       13.9764322420
  C        13.2763842826        1.1787129992       16.0428666557
  C         6.9508601495        7.8096595062       16.5981814350
  H        12.7655886801        4.8021066948        6.1234945251
  H        13.1997643019        4.2887958825        4.5508932825
  C        14.4290278998        5.7757454835        5.3535726239
  H         8.3564232181        3.9437458096        3.4135634784
  H         8.8668312038        4.4686801085        1.9012075412
  C         7.3127875253        5.5439105443        2.6477443887
  C        11.7552276680       -0.4216820004        1.0444438950
  C        11.8281012164        1.6856938141       -0.1330568570
  H        14.2152008260        1.6099282105       15.8346773681
  H        13.4531031563        0.1326709419       16.3351048498
  C        12.6936000678        2.0268065060       17.1606265716
  H         7.0855230135        8.8050506106       16.4153424477
  C         6.6165579666        7.4399453048       17.8965725297
  H        14.3972616843        6.4795640854        6.1628993613
  H        14.6269551054        6.4373214796        4.4466966997
  C        15.5501415207        4.7626838421        5.5955799695
  H         6.9739829492        6.1430512389        3.4575804051
  H         7.5183560692        6.1333642293        1.7909032674
  C         6.1897702357        4.5119664000        2.3541453056
  N        11.6558414196       -1.3784759043        2.1295073203
  C        12.1334890287       -1.1223735355       -0.0871893250
  C        12.1945929949        1.0028046524       -1.2697549137
  H        11.7863203241        2.7887234709       -0.1390987053
  H        12.9646911349        3.0455789667       17.0232695741
  H        13.3100934060        1.9454456379       18.1130884402
  H        11.6571379385        1.9112100043       17.3227553943
  S         6.2762004259        5.8618676118       18.5489557896
  C         6.5982367067        8.5492117320       18.9598377477
  H        15.4251821285        4.1571265662        6.4960575219
  H        15.7010838182        4.1303803779        4.7443819417
  C        16.9821731956        5.3253113971        5.6272120675
  H         5.8364017066        4.2395394822        3.3828065132
  H         6.5298305421        3.5627721630        1.8507675762
  C         4.9904023902        5.1682062300        1.6273332781
  S        11.8261982485       -2.9033235859        1.5621359479
  N        12.3294018631       -2.4956503691        0.0514787843
  C        12.3388274998       -0.4544268625       -1.3116285540
  H        12.1422918189        1.6429011419       -2.1975217937
  C         6.1033572670        6.6222872423       20.1006362404
  N         6.2226948921        7.9757572636       20.1092975346
  O         6.8991685098        9.6973457897       18.8183488956
  H        17.4764917829        4.8233318967        4.7530520064
  H        17.0417152241        6.4182169230        5.4420130509
  C        17.6607877759        5.0841702014        7.0192567578
  H         5.2758839271        5.5512993022        0.6290014584
  H         4.2949039661        4.3257466813        1.4550564178
  C         4.2893462330        6.2605955204        2.5620412388
  C        12.8010942739       -1.2085528032       -2.4481278724
  S         5.7318968257        5.7417370302       21.5271766521
  C         6.3476658037        8.7808294019       21.3457002331
  H        16.9436217124        5.4081820303        7.7356794238
  H        17.7886699661        3.9656196206        7.0715713557
  C        18.9822876708        5.7854697162        7.2162940637
  H         4.8573371896        6.4572441934        3.4987573104
  H         3.2189099139        5.8693736282        2.7159267660
  C         4.2129648486        7.6507460841        1.9644993909
  H        12.8039614781       -2.3233970029       -2.3184676433
  C        13.1909798709       -0.7511583495       -3.6657486977
  H         5.7212137023        8.2700376459       22.0788453225
  H         5.9311264077        9.7720731896       21.1882343372
  C         7.8121338138        8.8190112750       21.9071299958
  H        19.4892303425        5.4222478701        8.1370574820
  H        18.6534850846        6.8833381666        7.2919757569
  C        19.9919154084        5.5213382369        6.0251085923
  H         5.1797087554        8.1700574001        1.8408995162
  H         3.7326199143        7.8114304954        0.9495351923
  C         3.3694890934        8.5833909273        2.8129071502
  S        13.5931817153        0.8896789791       -4.1648368551
  C        13.3919596628       -1.7643842062       -4.7762792193
  H         8.0917297619        9.7956642740       22.3736136570
  H         8.5690352878        8.6874919252       21.1210997981
  H         8.0019744318        7.9183121867       22.5453521608
  H        20.1810623849        4.4582113644        5.8952166362
  H        19.6430531266        5.9944869484        5.0912374302
  H        20.9644429815        5.9575490184        6.1519070463
  H         3.7618728869        9.6194009866        2.6603125612
  H         2.4056964548        8.5951823661        2.3656840879
  H         3.1462501453        8.1350859011        3.8082870661
  C        13.8400698298        0.2129759800       -5.7448443296
  N        13.9103073999       -1.1379685429       -5.8140074488
  O        13.2144419495       -3.0237796455       -4.6668341060
  S        14.2993084472        1.1627614506       -7.1231407725
  C        14.1936344739       -1.8633271358       -7.0111595619
  H        14.4869975433       -2.8898172290       -6.7853497279
  H        14.9424697257       -1.2824171700       -7.4930313786
  C        12.9745672407       -1.9584179727       -7.9824944458
  H        12.1661751351       -1.5259783046       -7.4353457250
  H        12.7197819905       -2.9719160015       -8.1849213492
  H        13.0832666524       -1.3273796254       -8.8354877131
  H        -2.4146458065       14.6760997046       16.0262975485
  C        -3.0158552327       13.9517393012       16.5814147542
  H        -3.8777613827       14.5210773537       16.9395617623
  C        -1.9744036712       13.6213254633       17.6882343891
  C        -3.3754484119       12.8003501281       15.6065526662
  C        -2.6209989268       13.1327826578       18.9378248821
  H        -1.4565135511       12.7907453735       17.2984745318
  H        -1.2062597707       14.2681493519       17.8948007320
  H        -3.9430680535       12.0250022109       16.2070548417
  H        -3.8630670467       13.1163912862       14.6967412189
  H        -2.5212327351       12.2805570632       15.1522213963
  C        -1.6647195970       12.5411430071       19.9445553615
  H        -3.3929210191       12.3913184540       18.5991591036
  H        -3.2868673716       13.8083029413       19.4658180447
  C        -2.1688895763       12.6730449798       21.4388601095
  H        -1.6676907617       11.5258802216       19.6002813338
  H        -0.6337444182       12.9270578612       19.8058895365
  C        -1.0323037293       12.1924673102       22.1840878133
  H        -2.9599449425       11.9577341188       21.6930336541
  H        -2.3591523891       13.6084084867       21.8072289518
  C        -0.0936725008       13.3126044795       22.6611009776
  H        -1.3390295854       11.7464303485       23.0996035241
  H        -0.6149178450       11.3404485906       21.5945801536
  C         1.1593047021       12.6415518498       23.2926221593
  H         0.1247915684       14.1846581908       22.0152608060
  H        -0.5884181402       13.7445833179       23.5316034055
  C         1.5642304380       11.3066517341       22.5721340699
  C         0.7777591105       11.9121590022       24.5455745525
  C         2.3184527729       13.6124211184       23.5842233738
  C         1.5203513474       10.2210051088       23.4724150131
  C         1.9233221229       10.8905764177       21.2658129268
  C         0.9421134867       10.5625742042       24.7041243881
  C         0.2050160726       12.5407993564       25.6628637299
  H         2.3875308166       14.3482436360       22.7728940770
  H         1.9188952541       14.1962268221       24.4029304907
  C         3.6733302695       12.9477440956       23.7491881338
  S         2.0572134094        8.8012236185       22.7356203756
  C         2.1647120263        9.5631863514       21.2201060971
  H         2.0477188568       11.6402480579       20.5309379107
  C         0.6144387534        9.9822961712       25.8949989116
  H         0.0336355317       13.6470474609       25.6288006264
  C        -0.1139140378       11.9579275761       26.8519979559
  H         4.0109745292       12.6772779853       22.7837792611
  H         3.4649002476       11.9908914186       24.2868191451
  C         4.6924093421       13.9264742104       24.3807551064
  C         2.5410241667        8.8226628379       19.9368647864
  C         0.0180464603       10.6282928402       26.9848349652
  H         0.8368318362        8.8983358112       26.0801150291
  C        -0.5315268127       12.3486593760       28.1560463205
  H         5.4065360854       13.3364620147       24.9803309012
  H         4.2058040818       14.4070914950       25.2141642797
  C         5.4941954635       14.6409225824       23.3466511248
  C         2.6947039035        7.4204182103       19.7642659121
  C         2.9854789097        9.6160130071       18.8073690041
  C        -0.3782525756        9.8982717451       28.2504323636
  C        -0.6876672666       11.2402290858       28.9544802243
  S        -0.9983183588       13.8057626857       28.9166238227
  H         5.9453558789       15.3132989903       24.0534355716
  H         4.9086355027       15.1787831748       22.6158994943
  C         6.6070927360       13.8017387664       22.5754878975
  N         2.3921302219        6.4634886123       20.7255982544
  C         2.9794875130        6.8411671700       18.5424252891
  C         3.2708174305        9.1022493679       17.5803700111
  H         2.9874865575       10.6383480327       18.9366744428
  C         0.8236209811        9.0674050407       28.7700792309
  C        -1.5791707544        9.0024267285       28.2000167434
  C        -1.1179925148       11.5954167078       30.2595924089
  C        -1.2301719719       12.9183782689       30.4126786353
  H         7.4424002024       14.4737414720       22.5163018107
  H         6.7741411406       12.8766152301       23.1065315996
  C         6.2922881069       13.5588263373       21.1483852620
  S         2.5159774145        5.0282732095       20.0403535816
  N         2.9410210254        5.4113976158       18.5628191663
  C         3.2026743141        7.6193064787       17.3726125361
  H         3.5562369110        9.8070042459       16.8160529461
  H         1.1758358799        8.4177255071       27.9609543371
  H         0.4463765469        8.3771033670       29.5328780526
  C         1.9838955482        9.8395154461       29.3811642675
  H        -1.3705452898        8.2024234818       27.5675723892
  H        -1.7255940472        8.5744822239       29.1809342352
  C        -2.7239771918        9.7677554306       27.6624138621
  H        -1.3699053501       10.8624202359       31.0312729619
  C        -1.5607586172       13.5962055207       31.7572986369
  H         6.0570913530       14.4696058402       20.6656116395
  H         5.4367226806       12.8733100451       21.0509739179
  C         7.5018326010       12.9179473023       20.4199661005
  C         3.4218571952        6.9847573117       16.1011098665
  H         2.3146798561       10.6554030096       28.6981163748
  H         1.5622482850       10.3129509370       30.2444568367
  C         3.2241046790        9.0869085197       29.8837715633
  H        -2.5791601804       10.2353965187       26.7434937504
  H        -3.1543324214       10.4789938981       28.3651208840
  C        -3.8788976899        8.8886943954       27.2936196395
  C        -1.5678485985       14.9612567608       32.0136669783
  C        -1.9645056868       12.7770791480       32.9630085312
  H         8.4264767507       13.3930691837       20.6319024404
  H         7.6748947893       11.8063741936       20.7311286798
  C         7.2313014749       12.9530286049       18.8930694292
  H         3.6633091765        5.9403949613       16.1826813653
  C         3.6338867521        7.4850781399       14.7968740475
  H         3.6190655687        8.4113296153       29.1164136356
  H         2.9852251205        8.3739859954       30.6939375794
  C         4.3649281195        9.9953774046       30.3277846052
  H        -3.6060468200        8.2399352915       26.4441907820
  H        -3.9663277452        8.1350741363       28.0882350127
  C        -5.2130887853        9.6327793547       27.0401869904
  N        -1.1612534022       15.8991678723       31.0597311363
  C        -1.9288395138       15.5921435949       33.2087309917
  C        -2.3049672999       13.4237941033       34.1803293593
  H        -2.0733114789       11.6428811071       32.8962617499
  H         7.1695661425       13.9378708313       18.4193540255
  H         8.1105811224       12.4492867491       18.4317669723
  H         6.4831149251       12.3611381198       18.4181111431
  S         3.7895819820        9.1258412165       14.2367646491
  C         3.8812276107        6.4590214308       13.7065234385
  H         4.3458793250       10.9367805257       29.7762418216
  H         4.1788249080       10.3436800829       31.3403445084
  C         5.7113977992        9.3498877880       30.1093866890
  H        -5.2766228140       10.5689809452       27.6243834042
  H        -5.9834747908        8.9487146174       27.3942929734
  C        -5.4335815797       10.0056418229       25.5925060397
  S        -1.3045694790       17.3946096109       31.5990115085
  N        -1.9410158097       16.9684904099       33.0408326938
  C        -2.2795304770       14.9111151450       34.3611860868
  H        -2.7653233424       12.9142979036       35.0130717401
  C         4.2125697835        8.4629242027       12.6067064818
  N         4.2415467752        7.0857744487       12.5317891486
  O         3.8472457432        5.2652695763       13.9268116016
  H         6.4025886485       10.0126454294       30.6345520618
  H         6.0588300653        9.3263177572       29.1169858118
  C         5.8524197315        8.0499447414       30.7929966477
  H        -4.9350497075       10.9098617906       25.2548790285
  H        -5.2353418924        9.2093191640       24.9558772386
  C        -6.9695962132       10.3159133961       25.3286263497
  C        -2.6324694601       15.5934351335       35.5484607204
  S         4.6203230479        9.3446323447       11.1270790984
  C         4.3610825753        6.3478903457       11.2876121039
  H         6.7013373654        8.2328494047       31.5449790699
  H         4.9762392827        7.8538574564       31.4722976356
  C         6.2642567476        6.8736728383       29.9564052794
  H        -7.1351664754       10.4975609200       24.2768548765
  H        -7.2074457394       11.2109712613       25.9275273129
  C        -7.8434198720        9.1107632789       25.6944783218
  H        -2.6758488985       16.6692498976       35.4364397369
  C        -3.1887444020       15.1188311984       36.7243264524
  H         5.2111690111        6.7964226277       10.7409312076
  H         4.7674227739        5.3517640948       11.3662176196
  C         3.0064400496        6.2193139951       10.5847581483
  H         7.1501546972        7.1908337017       29.3550920485
  H         5.5619726514        6.5346958821       29.1661450676
  C         6.5763337412        5.6376165109       30.8137138394
  H        -7.3812673688        8.2350138537       25.2386777013
  H        -7.9051551464        8.8993391069       26.7333371343
  C        -9.2691967234        9.2718220934       25.2030311580
  S        -3.8823565241       13.6210363173       37.1511642140
  C        -3.2025558042       16.1667679207       37.8138154912
  H         2.9166166315        6.9622057483        9.8053194293
  H         2.9598549384        5.1936830850       10.2022717666
  H         2.1757450387        6.3210490459       11.2269080796
  H         5.9909857625        5.6898528169       31.6824766904
  H         7.5366075156        5.4966919890       31.2496209647
  H         6.2606491186        4.7447508520       30.3421528650
  H        -9.6489126672       10.2607379116       25.3607301987
  H       -10.0792031831        8.6342222381       25.6068038408
  H        -9.3711191777        9.1850793764       24.1288582420
  C        -4.1684597903       14.3403991156       38.7123680102
  N        -3.9151525182       15.6346134834       38.8505117618
  O        -2.7972752033       17.3048912421       37.6528699190
  S        -5.0615951631       13.5673880885       39.9948640291
  C        -4.2091019139       16.5251581296       39.9991739579
  H        -4.4522197248       17.5601480629       39.6154704413
  H        -4.9875779271       16.2580893241       40.7012390105
  C        -2.9099333029       16.7334244178       40.7480946258
  H        -2.0312040571       16.1813111451       40.2990129064
  H        -2.6391486933       17.7464675318       40.6699584749
  H        -3.0101028612       16.4445554209       41.8151537185
