352
i=
  H         2.4612673297        1.1523710244       13.4909718295
  C         3.4164603846        1.7348024875       13.1761864714
  H         4.0741204960        0.9018762143       12.9059649144
  C         3.0293867440        2.3762500789       11.8488945952
  C         3.9222093697        2.6552485075       14.3071771117
  C         4.1597251769        2.6885070100       10.7938176168
  H         2.5876447499        3.3238906131       12.0529114137
  H         2.1993830096        1.7508002189       11.5357924285
  H         3.0866330628        3.2907958306       14.5763713499
  H         4.7999975305        3.2982441440       14.0092647167
  H         4.2760518449        2.1450154279       15.1553316287
  C         4.6414930509        1.4454289571       10.0458210645
  H         3.8509498200        3.3248124666        9.9943042677
  H         5.0023650360        3.1593614595       11.3765493590
  C         5.2611214839        1.6656087494        8.6389081932
  H         3.8552576059        0.7184977848        9.9163323020
  H         5.4344473759        0.8922142393       10.5662529651
  C         6.4715190770        2.5433800208        8.6622265660
  H         4.6095750600        2.1727175849        7.9310927516
  H         5.5701764973        0.6374541384        8.3026838356
  C         7.7873000155        1.6943165361        9.0612389400
  H         6.5204839332        2.9201863639        7.6569234317
  H         6.2732821311        3.4257538452        9.2964433025
  C         9.1040469561        2.6134586214        9.2585945073
  H         8.0691512213        0.9805801351        8.3135006114
  H         7.6877245667        1.1042748174        9.9893576079
  C         8.8714452678        3.9130311536        9.9449147535
  C         9.4682101772        3.3042857229        8.0366700614
  C        10.4727402136        1.9149572988        9.8143731224
  C         9.1456376492        5.0314279094        9.1513884150
  C         8.5172290934        4.2843293750       11.2081428533
  C         9.4443791447        4.6469965776        7.8341686046
  C         9.9197915170        2.6524075636        6.8526144323
  H        10.3139631550        1.4090685578       10.7541175419
  H        10.8396408394        1.1650584032        9.1355631458
  C        11.6164504640        2.8744855010       10.0231695596
  S         8.8923050524        6.5165051236       10.0031288603
  C         8.5133673912        5.6289306102       11.3948857928
  H         8.3604979797        3.5647383348       12.0284468108
  C         9.9630904992        5.2773013710        6.7338789364
  H        10.0295904398        1.6092163675        6.8695635911
  C        10.2835656638        3.2618583467        5.6770206464
  H        11.3310393134        3.7398595425       10.4943089273
  H        12.0581905782        3.1955938935        9.0937911439
  C        12.7094753645        2.2770320807       10.8637615102
  C         7.9964341672        6.3633989278       12.6803178590
  C        10.3444430129        4.6098757689        5.5596692715
  H        10.0567821716        6.3571094305        6.7156688213
  C        10.7941879558        2.8794395660        4.4739036843
  H        13.5313550960        2.9804013999       10.8130988751
  H        13.0033702378        1.2916674515       10.5358663782
  C        12.4415796449        2.2262629567       12.3464816839
  C         7.9860896173        7.7568082936       12.9052703599
  C         7.3811210528        5.5509762552       13.7100353893
  C        10.7204098528        5.2627945367        4.3031834703
  C        10.9854991021        3.9612392655        3.6325638588
  S        11.1337035901        1.3784137562        3.7221809060
  H        11.9209189750        3.2093039903       12.5919950312
  H        11.6541811943        1.4826670771       12.6196739171
  C        13.6556767675        1.8974593929       13.1701521509
  N         8.3400381755        8.7764314816       11.9695283289
  C         7.6663629594        8.3146455421       14.1593064294
  C         6.9763613020        6.1180612722       14.9714649660
  H         7.1056865329        4.4989763200       13.6108060978
  C        12.0814347457        6.0547508305        4.3904492875
  C         9.4949018302        6.0339042082        3.7102809542
  C        11.2880218051        3.5024197540        2.3370142837
  C        11.4907604812        2.1431826285        2.2664335261
  H        14.4655408416        2.4984466780       12.9318466859
  H        13.9529686900        0.8784518216       13.0988938765
  C        13.4214907466        2.2962861754       14.6903337730
  S         8.1379432687       10.2736192079       12.6345102433
  N         7.7384047221        9.7312699037       14.1766407214
  C         7.1838852748        7.5367620589       15.2356500176
  H         6.6246269281        5.3544531582       15.6941993636
  H        12.0517693239        6.8881379553        5.1492465612
  H        12.3333085082        6.5527067109        3.4094425868
  C        13.3347091237        5.2270797405        4.8899094933
  H         9.2429361899        6.7715873484        4.5052300496
  H         9.7419833913        6.5563919249        2.8440803349
  C         8.2663348853        5.1719020680        3.5202723688
  H        11.3666637363        4.2638236353        1.6430267904
  C        11.9693598481        1.4717076665        1.0080355782
  H        14.2498964626        2.9070565513       14.8870872638
  H        12.5484182208        2.9329374992       14.6421262240
  C        13.1487593130        1.2128025726       15.7999676107
  C         6.9700292697        8.1126319607       16.5176165711
  H        13.3816197765        4.9694039965        5.9965203840
  H        13.3800226269        4.2736820719        4.4821683424
  C        14.6968701532        5.9083556002        4.6428458982
  H         7.7527662056        4.9628827849        4.5220778156
  H         8.4528299756        4.2660612898        2.9411141529
  C         7.2830766698        5.9152970592        2.6262931506
  C        11.9920927606        0.0910375036        0.8702644303
  C        12.1726012192        2.2966626093       -0.2445430181
  H        13.9999383586        0.5008929253       15.6166601485
  H        12.1915830531        0.7084769081       15.5158006002
  C        13.0803010759        1.6913712275       17.2915372382
  H         7.2016016787        9.1793042954       16.4448889984
  C         6.7043348686        7.6520665904       17.7351282380
  H        14.7287234313        6.9111067221        5.0764323344
  H        14.8299514019        5.8793590465        3.5463861025
  C        15.8247655456        5.0111239195        5.1541250166
  H         7.0641014914        6.8267379996        3.0555163172
  H         7.6288534787        6.0577150209        1.6690097850
  C         5.9572056578        5.2567039699        2.5651759824
  N        11.7325081020       -0.8814695431        1.8032586448
  C        12.2078084560       -0.5169059755       -0.3837328231
  C        12.4288050992        1.7828341460       -1.4543874514
  H        12.0197947418        3.3836568950       -0.2136989687
  H        12.1565072114        2.2403879987       17.5357909937
  H        13.9195230611        2.3133682648       17.6295778269
  H        13.1127900602        0.7881543076       17.9506520937
  S         6.5765096590        6.0090215831       18.2397935067
  C         6.6067847977        8.6997941620       18.8283917127
  H        15.4996333654        4.0093432996        5.6011069904
  H        16.3522550990        4.7721738800        4.2165941986
  C        16.5617833306        5.8150270639        6.2083980674
  H         5.5824175310        5.1683899072        3.6216225322
  H         5.9035723614        4.2326410815        2.1722788272
  C         5.0308907809        6.1603326066        1.6783342494
  S        11.7639694114       -2.3425080797        1.1113180055
  N        12.1889069027       -1.8977684142       -0.4172478612
  C        12.5097878825        0.2690664263       -1.5298599607
  H        12.5294666764        2.4132882554       -2.3453814196
  C         6.2531546140        6.7482029358       19.8308693763
  N         6.2436590145        8.0477166045       19.9352905417
  O         6.6638645168        9.9259557264       18.7059361600
  H        17.1269500012        6.6396404648        5.8370340661
  H        15.7963881560        6.1369846897        6.9496343574
  C        17.4795274837        4.9260310605        7.0842822245
  H         5.5353222397        6.4828762963        0.7859071730
  H         4.2047546530        5.5607739252        1.2811714770
  C         4.5008486396        7.4180493814        2.3383353817
  C        12.9880646490       -0.4675046534       -2.6581795901
  S         5.8232736554        5.8323416395       21.2409933406
  C         5.9647606951        8.8003464857       21.1863380849
  H        16.9555938138        4.6297208921        7.9845398940
  H        17.4991336198        3.9390547168        6.6016747522
  C        18.8345842380        5.5198250128        7.4353774869
  H         5.0171151349        7.6339051476        3.2830582200
  H         3.4544172705        7.2329761612        2.5052194687
  C         4.7661690372        8.5939022489        1.4523155092
  H        13.0041463708       -1.5180764064       -2.5622712244
  C        13.2306141000       -0.2186550232       -4.0206205796
  H         4.9929640909        8.5050465913       21.7154880638
  H         5.8877498094        9.8948755271       21.0678768206
  C         7.1448375307        8.5286614502       22.0718763834
  H        19.4209165108        4.9621379845        8.1154226344
  H        18.6735331578        6.5125674973        7.7727644519
  C        19.7398493389        5.5882220683        6.1664544873
  H         5.8103402795        8.6707299741        1.2168016312
  H         4.1701404180        8.4563536596        0.5304491201
  C         4.3082909389        9.9095490448        2.1090147608
  S        13.4889053798        1.3378780511       -4.7514488544
  C        13.5029380477       -1.3695328909       -4.9646345195
  H         7.7812756182        7.6921693437       21.7215184087
  H         6.8787288244        8.2834006884       23.1223269552
  H         7.7225081789        9.4862056292       22.1539031996
  H        19.5793862640        4.7844455387        5.3939824059
  H        19.6479432876        6.5626632857        5.8024519268
  H        20.7823235419        5.5472797402        6.5039555562
  H         3.2480471515        9.9233483321        1.9607460457
  H         4.3782066673        9.9589255924        3.1331265073
  H         4.7849404062       10.7888440719        1.8136865205
  C        13.9465997700        0.4655485115       -6.2366209085
  N        13.9242222202       -0.9114875725       -6.1462626478
  O        13.2937361980       -2.6271600918       -4.7528209492
  S        14.5945820429        1.1803264860       -7.8080784327
  C        14.2743930430       -1.8561724789       -7.1962203789
  H        14.5203349277       -2.8765172281       -6.8364046453
  H        15.1911871099       -1.4866803169       -7.6503043564
  C        13.2204120509       -2.0468988883       -8.2822473628
  H        12.2017290436       -1.8950436293       -7.9242630792
  H        13.2963907799       -3.0155312433       -8.7695049796
  H        13.3639868743       -1.1693102259       -8.9461701324
  H        -3.8194890778       14.1700284987       16.1472290265
  C        -2.9541583435       14.0373072214       16.7026964749
  H        -2.8903902004       12.9666133466       16.6868990594
  C        -3.0252775865       14.7377871072       18.0545468672
  C        -1.7401434249       14.5213581373       15.8727573171
  C        -3.2050598132       13.8465713880       19.3374645513
  H        -2.2406226309       15.5006422640       18.1251716955
  H        -3.8657424555       15.4194436611       17.9846159642
  H        -0.8404237246       14.4498691075       16.4159545531
  H        -1.5734438106       13.8735661513       15.0043238713
  H        -1.7760592860       15.4911851675       15.4820211635
  C        -1.9455279926       13.2478712162       19.9379127213
  H        -3.7998217434       13.0573031108       18.9975424865
  H        -3.6434381838       14.4471384871       20.0356805816
  C        -2.0895637726       13.3897242506       21.5121044261
  H        -1.8992009218       12.1442053486       19.6454896275
  H        -1.1255651178       13.8252985709       19.5984086296
  C        -1.1263288503       12.6694093813       22.4559748479
  H        -3.0545136229       13.0831993204       21.8010082040
  H        -1.9465625503       14.4267489403       21.7729784104
  C         0.1488366262       13.4769252513       22.7150741122
  H        -1.7642475216       12.4114724460       23.2985122579
  H        -0.8601043107       11.7051002778       22.1025652570
  C         1.3781962645       12.7637867112       23.2698450739
  H         0.5537238405       14.0214277085       21.8659816237
  H        -0.1840814842       14.3487016143       23.3613141078
  C         1.7624826148       11.5014766870       22.5438880276
  C         0.9332094137       12.0608421689       24.4880833823
  C         2.5403778483       13.8225784062       23.4618172151
  C         1.4564691154       10.3795683352       23.2889715087
  C         2.3251860186       11.1524603265       21.3111626298
  C         1.0235942631       10.7243711680       24.5742029799
  C         0.5437418699       12.6984389358       25.6448401445
  H         2.8402933410       14.3064795044       22.4794215250
  H         1.9949671884       14.5474679855       24.0250137110
  C         3.7300740992       13.0965878833       24.1458903375
  S         1.6866398173        8.8517516687       22.4464413133
  C         2.3947358862        9.8077213865       21.1041396127
  H         2.6219198012       11.8764779145       20.5729970131
  C         0.6585769072       10.1022339802       25.7078183883
  H         0.5477032060       13.7556408634       25.6432938259
  C         0.1130157053       12.0435464107       26.8262659145
  H         3.9731190897       12.2033529394       23.7256092352
  H         3.4122554697       12.7074727853       25.0934994078
  C         5.0605741702       13.8890046594       24.3407090141
  C         2.8424833062        9.1642117902       19.7849818593
  C         0.2484478868       10.6937680537       26.9059739766
  H         0.8320922508        9.0864430666       25.7282699462
  C        -0.3283923113       12.3600578038       28.0991376443
  H         5.8159418783       13.3317715036       24.8027908168
  H         4.9237346786       14.7039969034       25.0600912887
  C         5.7850004283       14.4998217008       23.1680427766
  C         2.9184511095        7.7869171194       19.5001588156
  C         3.1569332621       10.0850279659       18.6011330111
  C        -0.1471501061        9.8870952120       28.2016364700
  C        -0.4520949870       11.2399965865       28.8948773682
  S        -0.4503919357       13.8356716170       28.9906068138
  H         6.6169629002       15.1492069375       23.4541207324
  H         5.0721827665       15.2608971592       22.6499568620
  C         6.1869622467       13.4083043860       22.0840000982
  N         2.7482443462        6.7949705931       20.4886086070
  C         3.1477110254        7.2233395522       18.2671504010
  C         3.4243215594        9.4628796937       17.3645282776
  H         3.2477448555       11.1481173539       18.5374626246
  C         1.0658412541        9.2625356517       28.8837127394
  C        -1.4151384855        8.9827190647       27.9613644243
  C        -0.9455958921       11.5820513197       30.2139483127
  C        -0.8943913964       12.9507091953       30.3770573620
  H         7.2040802569       13.0368426659       22.2042652447
  H         5.4135696977       12.6342402467       22.1093962612
  C         5.9598360206       14.0195070566       20.6628220451
  S         2.8591089362        5.3194152304       19.7818677925
  N         3.1003305702        5.8538881655       18.2776444158
  C         3.3826744051        8.0090318247       17.1498255964
  H         3.7224265484       10.1255624683       16.6119448865
  H         1.6661092007        8.7425006020       28.0545538569
  H         0.7330188284        8.5204365389       29.6243321500
  C         2.0253198060       10.1224225340       29.6763828938
  H        -1.2772804899        8.3582400454       27.1574568203
  H        -1.6430198085        8.2390507590       28.8254743432
  C        -2.6897241464        9.7779432637       27.6989068176
  H        -1.2605129778       10.8315397484       30.9581515191
  C        -1.3396538328       13.6409586296       31.6607773557
  H         6.5338769101       14.9231984609       20.6768020975
  H         4.9920164469       14.2609365731       20.3872640249
  C         6.4976074712       13.1974531171       19.5081400714
  C         3.5778706016        7.4627245390       15.8375167528
  H         2.3907561220       10.9883669637       29.0559440771
  H         1.5473378741       10.4348286726       30.5742840021
  C         3.2579359955        9.3481506209       30.2972667816
  H        -2.5736094299       10.4980242269       26.8571353254
  H        -2.9375007459       10.5100805454       28.4318521405
  C        -3.9477166153        8.8966135018       27.5094844611
  C        -1.4544015344       15.0521687432       31.9177386795
  C        -1.5421606777       12.8156151263       32.8479615358
  H         6.7115225519       12.1661533576       19.8082124140
  H         5.8080758344       13.1454828363       18.6703673873
  C         7.8212973077       13.6774037943       19.0354031000
  H         3.4002720458        6.3699520705       15.7977992971
  C         3.8912644875        8.0111365663       14.5989496727
  H         3.8058973226        8.9965513646       29.4391827568
  H         3.0300646732        8.4748495736       30.8922644842
  C         4.2031533135       10.3281556965       31.0642865001
  H        -3.6593391550        8.0799880398       26.8163381818
  H        -4.1516775145        8.3624775069       28.4325953566
  C        -5.2614181514        9.6640908224       27.2206704466
  N        -1.1315021027       16.0619379214       30.9531983559
  C        -1.7563318415       15.6094622735       33.1315026745
  C        -2.0285142549       13.3660568450       34.0373701651
  H        -1.2616303709       11.7661534223       32.8165885360
  H         8.4352874634       13.9708637123       19.8774529985
  H         8.2492022319       12.9613428548       18.3693530022
  H         7.6706306353       14.5829562400       18.4034150740
  S         4.2887174944        9.6086487776       14.1565988420
  C         3.8244196478        7.0491620278       13.4438533085
  H         3.9839092432       11.3425014825       30.7540262905
  H         4.0128374950       10.2201048451       32.1286736602
  C         5.7045049412        9.9736149179       30.8250197718
  H        -5.3003539451       10.5856317246       27.8258591529
  H        -6.0600577476        9.1634289721       27.7499103486
  C        -5.5363900049        9.8075899823       25.7564399370
  S        -1.2673741261       17.5329926687       31.7023466458
  N        -1.7738288829       16.9731664936       33.1329916497
  C        -2.1944456667       14.7961859950       34.2532644033
  H        -2.1858429777       12.7302116905       34.8746288862
  C         4.2192058383        9.0087823297       12.4383263523
  N         4.0798585503        7.6769465869       12.3247453314
  O         3.7402746761        5.8321109463       13.5432061537
  H         6.3111319101       10.6702167275       31.3068584074
  H         6.0400731665       10.1225180273       29.8400795599
  C         6.1860891265        8.5528599983       31.2873757822
  H        -4.7574127471       10.2763842982       25.1802495749
  H        -5.6337353086        8.7397269535       25.3988308474
  C        -6.8772621069       10.5076540689       25.5982241251
  C        -2.5061807120       15.4478053705       35.5079999974
  S         4.7757322933        9.9782547452       11.0480285516
  C         4.2415375826        6.9295921253       11.0616830510
  H         6.8163809577        8.7809968368       32.1493836396
  H         5.3981098939        7.9304027788       31.7657476383
  C         6.7503037439        7.6435433319       30.2086421888
  H        -6.9729619437       10.6246800710       24.5526449795
  H        -6.8973468514       11.4304663167       26.1647297581
  C        -8.0857787820        9.6764230599       26.0979563333
  H        -2.1695173004       16.4469748212       35.4845115293
  C        -3.1505653990       15.0940951011       36.6710718748
  H         4.4755630813        7.5712118286       10.1908712457
  H         4.9965051029        6.1319282456       11.1388766300
  C         2.8768505016        6.2718587374       10.7618222332
  H         7.3449211442        8.1769100693       29.5177157932
  H         5.9017517114        7.3140514591       29.6400397682
  C         7.5997616263        6.4483665005       30.7179510537
  H        -7.8307800102        8.6320718212       26.0172199507
  H        -8.0171856047        9.7648238641       27.1646609755
  C        -9.4061045888       10.0725781278       25.4672985508
  S        -3.8485806673       13.5155714702       36.9783259881
  C        -3.1043140545       16.0598322318       37.7893934906
  H         2.8884845923        5.1588035467       10.8510184158
  H         2.0889513020        6.6610006283       11.3793386749
  H         2.5119453739        6.3808299902        9.7531479761
  H         7.0289698840        5.6889436594       31.2302127596
  H         8.3765187121        6.8594604276       31.2916302027
  H         7.9991056411        6.0892647158       29.8131424366
  H        -9.5535789008       11.1174407607       25.5826432147
  H       -10.1234435953        9.4335530135       25.9406156600
  H        -9.2976168574        9.8391971853       24.4237543825
  C        -4.0816764027       14.1598154133       38.5824282302
  N        -3.6640990793       15.4619807842       38.8169328511
  O        -2.4741347044       17.0799317211       37.7064278206
  S        -4.6289172920       13.2596002346       39.9552951399
  C        -3.6734804003       16.1181111962       40.1302317231
  H        -3.7621225623       17.1966303119       40.0568977258
  H        -4.5191078221       15.7701815696       40.7632765019
  C        -2.3805306823       15.8665491553       40.8002919556
  H        -2.0520621378       14.8178494574       40.7309446031
  H        -1.5825713064       16.5412862989       40.5725798785
  H        -2.5588201344       16.0249797962       41.9123467093
