352
i=
  H         4.2712126712        1.4762390708       12.2439149620
  C         3.7145765840        2.4288266124       12.3735488471
  H         4.4343144961        3.2767997575       12.2829866934
  C         2.7962527019        2.6545627326       11.2349018631
  C         3.0448928478        2.3486727955       13.7219944611
  C         3.5249378127        2.7821493243        9.9088047631
  H         2.3362873788        3.6384452068       11.3471531481
  H         2.0990762093        1.8460541229       11.1872640292
  H         2.0390392249        1.7668217524       13.6001396604
  H         2.7274337247        3.3171833274       14.0859180472
  H         3.7388185230        1.8787742156       14.4947104125
  C         4.2559337972        1.5312542962        9.3320777057
  H         2.6981478963        3.2032015562        9.3424474608
  H         4.1680116211        3.5906904857       10.1726506669
  C         4.9569599446        1.6833310031        7.9577423233
  H         3.5771452291        0.6821859619        9.2284702019
  H         4.9247840709        1.1501782905       10.0787723442
  C         6.2178960984        2.4929647858        8.1007527843
  H         4.3830111513        2.0130543656        7.0523935759
  H         5.2122660394        0.6958531114        7.6352023733
  C         7.4572216649        1.7653299568        8.6766402577
  H         6.4376126866        3.0586960646        7.1605579379
  H         6.0302426736        3.1466405034        8.8744772177
  C         8.7529152597        2.6046484948        8.8887611001
  H         7.6508450120        0.9526610612        7.9413315035
  H         7.2457619765        1.3412773607        9.6737531607
  C         8.4422957555        3.9227301173        9.5425423099
  C         9.2070920577        3.3171310266        7.6092870235
  C         9.9015454495        1.8412474734        9.5144649750
  C         8.7207408842        5.0292717906        8.7972412395
  C         7.8626850900        4.3146908705       10.7596506128
  C         9.2675631180        4.6742925329        7.5685579605
  C         9.7507417813        2.7578516035        6.5050282614
  H         9.5366598017        1.5412366805       10.5297212383
  H        10.1091010081        0.8851273419        9.1076514281
  C        11.2274782829        2.5507442680        9.6540881398
  S         8.2526434372        6.5017745661        9.5044439848
  C         7.8699401651        5.6270804267       10.9710176141
  H         7.6379346620        3.4998766854       11.5235344755
  C         9.7404652450        5.2945045594        6.4753831891
  H         9.7296035620        1.7087878664        6.4299604221
  C        10.1062770714        3.3574730898        5.3362580738
  H        11.1959688460        3.5584062900       10.0976653474
  H        11.7585528409        2.6159058302        8.7200835421
  C        12.0554149903        1.7840129086       10.6761644219
  C         7.3669708341        6.3193433525       12.2201905721
  C        10.1117453313        4.6997789428        5.2607184857
  H         9.9242362715        6.3764789245        6.5851232951
  C        10.5472753117        2.9730090958        4.0878203973
  H        13.0335851686        2.3201603434       10.6278029433
  H        12.1897510762        0.7749472010       10.3163037427
  C        11.4787906626        1.8225820461       12.0999555969
  C         7.4977496040        7.6902786938       12.5752698737
  C         6.9607233920        5.5301239232       13.4314637327
  C        10.6054786454        5.4005934600        4.0435587215
  C        10.8703044312        4.0704471223        3.3367102672
  S        11.0025813292        1.4862030350        3.3197579863
  H        11.0239476283        2.8368955954       12.0187840151
  H        10.8144694106        1.0338434852       12.2701486859
  C        12.4669509046        1.9554694495       13.2940819028
  N         7.9483439328        8.5763029181       11.6714807887
  C         7.1976278828        8.2448410651       13.8152297168
  C         6.6944371251        6.0579069488       14.6770983656
  H         6.7875758845        4.4672858474       13.3230625817
  C        11.9535409751        6.1436844449        4.2571968442
  C         9.4979347762        6.1746341742        3.2773537312
  C        11.3081155648        3.7149541618        2.0543489378
  C        11.3523437115        2.3604159283        1.8726076114
  H        13.2668358734        2.7085389219       13.1537489168
  H        13.0179974712        1.0324375347       13.1978925628
  C        11.8190151650        2.0137200654       14.7254701546
  S         7.7424314041       10.0558595307       12.2838170663
  N         7.1979486831        9.6544855981       13.7798043190
  C         6.7253568857        7.4802624321       14.9237595873
  H         6.3593086043        5.4277455591       15.4894880453
  H        12.0227827305        6.9994312223        4.9808432678
  H        12.1645328640        6.5379457355        3.2455161640
  C        13.1795920189        5.1927414868        4.5570424243
  H         9.1145731742        7.0002146028        3.8462143897
  H         9.9052506884        6.7015914685        2.4213834383
  C         8.1965858567        5.3700656558        2.9696450870
  H        11.5718829664        4.4854545034        1.4010524003
  C        11.7129176987        1.6632828706        0.5790843689
  H        11.3502393600        2.9979527495       14.8246775163
  H        10.9319685239        1.3126335645       14.6724907806
  C        12.8012363435        1.7150100260       15.9434360946
  C         6.5337659554        8.1789347071       16.1100696111
  H        12.8574814744        4.6505527849        5.4229183794
  H        13.3937281939        4.4687405160        3.6941622771
  C        14.3712100420        5.9632218525        5.0653128390
  H         7.7156700020        4.9133049680        3.8582708011
  H         8.3176186460        4.5132227244        2.3431123493
  C         7.2322770607        6.3061611828        2.2145669935
  C        11.8339386153        0.2407005190        0.4665332868
  C        11.9032859213        2.4423274565       -0.6670185056
  H        13.6355776894        2.4202379499       15.9082421162
  H        13.2633369678        0.6883646283       15.8496398548
  C        12.1255362995        1.7639239030       17.2856100092
  H         6.8205746931        9.1834371254       16.1974712570
  C         6.2210474054        7.7201699125       17.3868036432
  H        14.1154579401        6.6750162990        5.8459827791
  H        14.7866892346        6.5913300824        4.3001006469
  C        15.4333092966        4.9915215594        5.6173854657
  H         7.2778961321        7.2514346694        2.7376662456
  H         7.6602433241        6.5502463041        1.2555730024
  C         5.7871212258        5.8283238611        1.9038488107
  N        11.7143272530       -0.7332382239        1.4577659869
  C        12.1405785888       -0.3029763282       -0.7582700872
  C        12.2803912843        1.8824403293       -1.8336551419
  H        11.7211015446        3.5087152957       -0.6330109483
  H        12.1001027103        2.8439846548       17.5966487605
  H        12.7667214591        1.3790258597       18.0754019685
  H        11.1569320956        1.2825829299       17.2103117024
  S         5.6958498918        6.0990139401       17.8178611458
  C         6.4452970187        8.6769247361       18.5487677729
  H        15.0195401211        4.3011452363        6.2938085756
  H        15.7933820165        4.3635396032        4.7809060122
  C        16.5167629057        5.8651360339        6.1352145684
  H         5.3710331701        5.3440363531        2.8385977797
  H         5.8610149268        4.9346966884        1.1835726579
  C         4.9705702215        6.9938842869        1.2536851445
  S        11.7510383161       -2.2315259791        0.6972898951
  N        12.0183600521       -1.6965012477       -0.8073206211
  C        12.3764739131        0.4027037172       -1.9663450192
  H        12.4858816560        2.5338559830       -2.7126788410
  C         5.7588557006        6.7491697025       19.4467300284
  N         6.0346994628        8.0415733139       19.6854791798
  O         6.8020098130        9.8573092440       18.4023800383
  H        16.9406101886        6.3602089164        5.3013918111
  H        16.0039690391        6.5494435061        6.8238684295
  C        17.6869100847        5.0117141542        6.6317679256
  H         5.5802005433        7.6937836827        0.6751076789
  H         4.2191459493        6.6572441897        0.5139140083
  C         4.2108190289        7.8399240484        2.3010291745
  C        12.5197970743       -0.3215698663       -3.2144834916
  S         5.2918743871        5.8370315081       20.8275962926
  C         6.1502266814        8.7819666277       20.9410358478
  H        17.4849831561        4.3081109504        7.4071214174
  H        18.0349792620        4.3384878545        5.7762381321
  C        18.8423596874        5.8966040063        7.1454843728
  H         4.8675335090        8.2563460968        3.0374922468
  H         3.6603650864        7.0890000771        2.9201275190
  C         3.1859880948        8.8525431765        1.8277829693
  H        12.0752525716       -1.2715369063       -3.1181345804
  C        13.1484535011        0.0045250994       -4.4042329203
  H         5.3992958727        8.3365027446       21.6554708664
  H         5.7842181388        9.7801637846       20.8910806382
  C         7.5642716423        8.8795741319       21.4888875634
  H        19.3879310074        5.3830962581        7.9363473387
  H        18.3680717830        6.6722323224        7.5921489755
  C        19.8195237977        6.3330385198        6.0086250911
  H         2.2527423054        8.3265148483        1.6428880159
  H         2.9140912851        9.5695916520        2.5671959460
  C         3.4780377866        9.5819670075        0.5472406116
  S        14.0642594654        1.4636441463       -4.6611841711
  C        13.0517965485       -0.9074695197       -5.5319588721
  H         7.7850440856        8.2587152927       22.2987450805
  H         7.5695104903        9.9705094281       21.8894425717
  H         8.3565121787        8.6947468485       20.7804798187
  H        19.8880364507        5.5293737301        5.1903240638
  H        19.4845815576        7.2041103503        5.5227368240
  H        20.8282863662        6.6264324873        6.4417477025
  H         2.6092660628       10.2797506447        0.4303696670
  H         4.2791626521       10.2683320465        0.7333468129
  H         3.7090299172        9.0630028691       -0.3869806382
  C        14.3546718734        0.8534442976       -6.2948714585
  N        13.8597039459       -0.3716114769       -6.5147721096
  O        12.4465797713       -1.9838400281       -5.5220484865
  S        14.9629924382        1.8073972889       -7.6622931148
  C        14.0449026083       -1.1194378497       -7.7892466097
  H        14.4087154047       -2.0879383244       -7.4254052789
  H        14.8493541199       -0.6466338040       -8.2885714836
  C        12.7467842901       -1.1269416445       -8.5876014923
  H        11.9821721982       -0.4722876885       -8.1415756499
  H        12.3507339046       -2.1486542856       -8.4509867387
  H        12.8838076351       -0.8543494149       -9.6365558153
  H        -3.8063233298       13.4042641701       16.3464739353
  C        -2.7278123624       13.5134938759       16.3421504054
  H        -2.1470262678       12.6356177084       16.3713924625
  C        -2.2344658826       14.3903498074       17.4909293323
  C        -2.3269532262       13.9952582993       14.9543730352
  C        -2.7356956410       13.7333626534       18.7986033024
  H        -1.1644030260       14.6322510623       17.5093041262
  H        -2.7596950594       15.3374294492       17.4111369570
  H        -1.5290757135       14.7784522118       14.9576287290
  H        -1.9287428727       13.2339161958       14.2831694022
  H        -3.1750337132       14.4123514551       14.4035881635
  C        -1.6625703562       13.7653782096       19.9138129380
  H        -2.9405267065       12.7394201326       18.5903009254
  H        -3.6673573225       14.1471980700       19.1673748821
  C        -2.2345987776       13.2806824981       21.2879130806
  H        -0.8407619980       13.1218399074       19.7435470925
  H        -1.2711613254       14.8203052766       19.9569559426
  C        -1.2472947661       12.5577821350       22.1728838626
  H        -3.1072540465       12.5705481001       21.1030736581
  H        -2.5440046849       14.1048038228       21.8941630336
  C        -0.0696247760       13.4507831171       22.6132609552
  H        -1.6407094810       12.1263623686       23.0180003743
  H        -0.9337687334       11.7819970533       21.5099141405
  C         1.0808611848       12.7291555204       23.2986985479
  H         0.3285723920       14.0104547003       21.8282522283
  H        -0.5355770045       14.1341260501       23.3885708620
  C         1.4635493759       11.4273636980       22.5960914711
  C         0.6639523374       12.0135455105       24.5674748206
  C         2.2155562375       13.7346489626       23.6816820336
  C         1.0805511183       10.3284503689       23.3420348897
  C         2.0238761430       11.0830066989       21.3603257874
  C         0.5524320393       10.6687153805       24.5886938314
  C         0.2381655889       12.6800625627       25.7747350750
  H         2.4352773386       14.2841774182       22.7920869867
  H         1.9049715250       14.4726965905       24.4534887104
  C         3.5287897484       13.0342856667       24.1277866720
  S         1.3812494829        8.7867148079       22.6059428805
  C         2.0724926944        9.7283743351       21.2685193721
  H         2.2735801354       11.8690484885       20.7113571517
  C         0.0998481983       10.0686498653       25.7208376056
  H         0.1257640328       13.7042891549       25.7959937902
  C        -0.2033047530       12.0745081158       26.9436574646
  H         3.7172931821       12.2765195322       23.4026226647
  H         3.2665901712       12.4234156326       24.9417416022
  C         4.7557196250       13.9312902215       24.3170230662
  C         2.4107570481        8.9402545337       19.9810566693
  C        -0.3010096379       10.6946946431       26.9555741976
  H        -0.0818154098        8.9258139243       25.7540355944
  C        -0.5965458790       12.4489270749       28.2294828979
  H         5.5564061527       13.4219112849       24.7803566099
  H         4.4867556006       14.7736663002       24.9702336260
  C         5.3197432371       14.4042956364       23.0204805661
  C         2.3711278060        7.5920517214       19.6342476019
  C         2.9985130853        9.8057606583       18.8520044148
  C        -0.7717008510        9.9987027670       28.1604312796
  C        -0.9009801113       11.3574920454       28.9750789512
  S        -0.7837463715       13.9991748926       28.9844606471
  H         6.0393098440       15.2910955147       23.1843299506
  H         4.4629493995       14.7235975805       22.4499765758
  C         6.1399533930       13.4127892475       22.1808786871
  N         2.0059461618        6.5337160566       20.4775186027
  C         2.5559451334        7.1239402054       18.3330928986
  C         3.2630409601        9.3442051879       17.6059202158
  H         3.1693612900       10.8782298152       19.0323910799
  C         0.3872028491        9.1112092982       28.7478911189
  C        -2.0824100525        9.3357244066       27.9283242151
  C        -1.2999331045       11.7979711895       30.2456431711
  C        -1.2253747281       13.1161245499       30.4374993412
  H         7.0740416837       13.9006831314       21.9328798305
  H         6.4742137015       12.5365399192       22.7637182749
  C         5.4147979411       12.9310195469       20.9699348647
  S         2.0850601757        5.1160187821       19.6712153179
  N         2.4961186257        5.7319473480       18.2298575904
  C         3.0036178039        7.9439107955       17.2453681055
  H         3.6485412532       10.1157586715       16.8811870096
  H         0.6318614177        8.3255045066       28.0405093850
  H        -0.0450185738        8.6587068679       29.6394096183
  C         1.6167158563        9.7675888829       29.2808781357
  H        -2.0268873348        8.5229755333       27.1968713518
  H        -2.4057623025        8.9262771047       28.9507655810
  C        -3.2468582120       10.1974545816       27.4673600417
  H        -1.4210802241       11.0738332452       31.0629853552
  C        -1.5012643613       13.9148478678       31.6693504451
  H         4.3939632572       12.9919942830       21.1914597893
  H         5.6932336597       11.9122554520       20.7812705703
  C         5.6204909800       13.6885082046       19.6912963019
  C         3.1250961533        7.3179841521       15.9962997338
  H         2.0841888434       10.4219492158       28.4988537933
  H         1.4101280175       10.4082589811       30.1287162827
  C         2.6529420463        8.6840596474       29.7792629538
  H        -2.8227618111       10.6615620243       26.5637806062
  H        -3.4250078143       11.0771436834       28.1354476388
  C        -4.5872524534        9.4343254040       27.3237115034
  C        -1.6018596227       15.3288839257       31.7526233295
  C        -1.6388754232       13.2040821969       32.9781542236
  H         4.7728297331       13.5073253541       19.0317818064
  H         5.6191168677       14.7233716604       19.9221829203
  C         7.0162152976       13.5497453893       19.1303325498
  H         2.7472862066        6.3306534337       15.9785204406
  C         3.5090797410        7.7705395367       14.7438361380
  H         2.8488161186        8.0525598171       28.9460486311
  H         2.1496096822        8.1152415827       30.5883644666
  C         3.9218995049        9.2841853456       30.3067825232
  H        -4.3849090092        8.5110833005       26.7199463995
  H        -4.7794135906        9.1607763576       28.3593281143
  C        -5.7926193472       10.3699982725       26.8634956202
  N        -1.3995087512       16.2232015198       30.6722723466
  C        -1.8900140249       16.0269366503       32.9632076817
  C        -1.9925148151       13.9230544456       34.1689231238
  H        -1.7246327461       12.0687832580       32.9907783739
  H         7.2480096805       14.2314771509       18.2925062652
  H         7.6835707873       13.8268609854       19.9637221679
  H         7.3002643049       12.5493001841       18.8437592932
  S         3.8225221785        9.3465843015       14.2882010156
  C         3.5414374816        6.7526475282       13.6028085657
  H         4.0818319340       10.1610211643       29.7252590595
  H         3.5743891391        9.7605110788       31.2573063719
  C         5.1712505328        8.4617018235       30.4626489968
  H        -5.6022841081       11.4173914270       26.8024869947
  H        -6.6246703639       10.2907408621       27.6125031385
  C        -6.2902984511        9.9613688135       25.4458414450
  S        -1.5554455456       17.6807910218       31.3049599683
  N        -1.9480752818       17.4039559403       32.8378018927
  C        -2.1463059375       15.3786409045       34.1861397370
  H        -2.2550709540       13.4022751692       35.0851670968
  C         3.9945263240        8.7048371914       12.6202741899
  N         3.9640035825        7.3672643547       12.4546088902
  O         3.4058596791        5.5422409702       13.7926029609
  H         5.8957978169        9.1496295301       30.9285310541
  H         5.5679725321        8.2412063570       29.5235952932
  C         4.9682329724        7.2921229617       31.3551571779
  H        -5.5059566808       10.1471444986       24.7100456826
  H        -6.4161851473        8.8442108591       25.4570077872
  C        -7.5538071128       10.8322330423       25.0396736623
  C        -2.4935368979       16.1987944946       35.3346324666
  S         4.4701585215        9.8183644683       11.3124132090
  C         4.0087497184        6.6401899163       11.1520797214
  H         5.5112656102        7.5365072022       32.2533511878
  H         3.9182632417        7.1799200092       31.6731896081
  C         5.3999464636        5.9267039473       30.6916822195
  H        -7.2949563714       11.4281077199       24.1843508129
  H        -7.8222132728       11.6584962494       25.6900578536
  C        -8.7630733138        9.9313576503       24.7552504095
  H        -2.1799474847       17.2073292630       35.2381303344
  C        -3.0837434116       15.9511966429       36.5477209932
  H         4.8367837320        6.9674910887       10.5581493982
  H         4.2090719606        5.6227407750       11.2206342264
  C         2.7065221130        6.8522292276       10.4019574946
  H         4.7118779435        5.7619008501       29.9319864080
  H         5.2678657968        5.1934201798       31.3683297312
  C         6.7673259920        5.9021949302       30.0601952340
  H        -9.3454784376       10.3912947058       23.9124896639
  H        -8.6144064640        9.0276108618       24.3650235164
  C        -9.6092280712        9.8107235087       26.0429171821
  S        -3.8007936273       14.4595659862       37.0610134998
  C        -3.3157274698       17.0118455007       37.5437129337
  H         2.1644300884        7.6270112932       10.8844832956
  H         2.9688832216        7.2111112463        9.3478325773
  H         2.3158712886        5.8536832416       10.2541326185
  H         7.5120554509        6.2452528502       30.7544917805
  H         6.6790080024        6.5035826265       29.1527091706
  H         6.9461510161        4.9008620526       29.6454858469
  H        -9.1271971442        9.0317187873       26.6632797310
  H       -10.6322338951        9.5113180334       25.7848014824
  H        -9.7369800216       10.7175146839       26.6169916242
  C        -4.1131588641       15.2576101210       38.6201081170
  N        -3.9714854838       16.6051660641       38.6223276147
  O        -3.0881218359       18.2011649628       37.2886385662
  S        -4.9019678310       14.5324825916       40.0824886953
  C        -4.0537441988       17.4303826780       39.7703910000
  H        -4.0968825334       18.4836249672       39.4735930236
  H        -4.9624878417       17.2158528670       40.3397989192
  C        -2.8446096718       17.2845757818       40.7208276610
  H        -2.7543001873       18.0411784185       41.3915123776
  H        -2.5848024161       16.3028443581       41.1356447230
  H        -1.9686351140       17.5366573096       40.1334805716
