352
i=
  H         2.4117770274        3.3824760574       12.2573749514
  C         3.0144106980        2.5140401373       12.4880092642
  H         2.3121688793        1.7400779831       12.2796647078
  C         4.2554724505        2.3622663301       11.5718924980
  C         3.3529566716        2.5991372269       14.0250282760
  C         3.9958198525        2.0315928372       10.1269355940
  H         5.0416158795        1.7144018546       12.0403937839
  H         4.7716269022        3.2894318286       11.5781839909
  H         3.2410871270        3.6069806438       14.4796265774
  H         4.3761995798        2.2251257760       14.0314257596
  H         2.6642818921        1.9225937974       14.5948281023
  C         5.0350450466        1.2389276290        9.3915260850
  H         2.9771763913        1.6348354750       10.0663445508
  H         3.9720052979        3.0130402362        9.6559611798
  C         5.6607783813        1.9774392358        8.1837290768
  H         4.4784647082        0.4129557358        8.8961121232
  H         5.7103986005        0.7699111511       10.0617664810
  C         6.8205158853        2.9888957464        8.4467254205
  H         4.8025440542        2.3220027119        7.5715047878
  H         6.0276267957        1.1964860679        7.4871536916
  C         8.0285063912        2.2039947554        8.9643268009
  H         7.1696471548        3.5266117519        7.5126326556
  H         6.4876383874        3.7172778341        9.1369668344
  C         9.2757245009        3.1552292394        9.3804427420
  H         8.2769435881        1.5309559468        8.1696073560
  H         7.7677739588        1.6100040148        9.8765001796
  C         8.8845152942        4.5046137559       10.0353794068
  C         9.8189777527        3.8730472144        8.2293148968
  C        10.3537569558        2.4606877555       10.1655311810
  C         9.3005104926        5.5829493621        9.3322590522
  C         8.2962349915        4.8814378641       11.2252033887
  C         9.8343514651        5.2118468238        8.1340420181
  C        10.1706149014        3.2191376076        7.0388789416
  H        10.0577751189        1.7433978424       10.8506480630
  H        10.7639760208        1.7957303242        9.3768623677
  C        11.5158122791        3.2916293375       10.7390284164
  S         8.8442316282        7.0673767777       10.0678485508
  C         8.2830189828        6.2236236171       11.4055178825
  H         8.1021955198        4.1194694992       11.9643741759
  C        10.2167449019        5.8547982170        6.9754917695
  H        10.1296546747        2.1269919415        7.0947054768
  C        10.5680364679        3.8895066535        5.9115762262
  H        11.0497091539        4.1133193271       11.2735430075
  H        12.0656712533        3.7202314632        9.8556689487
  C        12.4221865815        2.6714525388       11.7918579844
  C         7.7369288946        6.9561066045       12.5959164074
  C        10.5951344976        5.2486526290        5.7797310850
  H        10.2538367118        6.9451292281        6.9172412553
  C        10.9293897837        3.4482927334        4.6582309217
  H        13.2187001177        3.3266686091       11.9246914963
  H        12.9258555808        1.7477015494       11.4160153710
  C        11.5503253912        2.4481425731       13.0491702971
  C         7.6163958634        8.3433829488       12.7015352610
  C         7.1595668666        6.1891940693       13.7181906026
  C        10.8838260961        5.8800727864        4.4299215673
  C        11.1928378937        4.4759957762        3.7584731741
  S        11.3512766164        1.8729496467        4.0459520096
  H        10.4921012361        2.8490463037       13.0175844767
  H        11.4132480960        1.3320392386       13.0030103720
  C        12.2231838512        2.6723524626       14.4327677247
  N         7.8824731057        9.2656559161       11.6777319198
  C         7.2798957222        9.0044367468       13.8768273658
  C         6.7664879776        6.7870205747       14.9321116100
  H         7.0593099677        5.1015122290       13.5908883410
  C        12.1578952240        6.7400622918        4.4983020660
  C         9.6465033876        6.6619329117        3.9005334133
  C        11.5818556009        3.9810782810        2.5062007012
  C        11.7077361035        2.6205462965        2.5337065980
  H        12.0462817967        3.7020325649       14.7199825342
  H        13.3352138088        2.6940922547       14.5307601697
  C        11.5594178981        2.0110827160       15.6664364908
  S         7.7286208357       10.7814716812       12.3071524955
  N         7.3556028746       10.3948105751       13.8445385357
  C         6.8659422913        8.2606960528       15.0559344808
  H         6.4200933260        6.1640740179       15.7978260557
  H        12.0683545503        7.6420328241        5.0696494420
  H        12.2672239111        7.0278634109        3.4489887136
  C        13.3096508742        5.9235954471        4.9049940042
  H         9.4584570564        7.6271451937        4.3546117328
  H         9.8574587548        6.9595967707        2.9497086509
  C         8.3684065912        5.8029770949        3.8223694430
  H        11.6876024431        4.8128065096        1.7568468149
  C        11.9211187640        1.8050390332        1.2888242715
  H        10.6292899803        2.5309655896       15.9108926381
  H        11.2383417237        1.0746817100       15.2933949313
  C        12.4739078550        1.9738351149       16.8978465239
  C         6.7932976642        9.0292962583       16.2466007052
  H        13.0411291335        5.2274158174        5.6474347893
  H        13.5812667180        5.3241707823        3.9935548210
  C        14.5448943226        6.5757790018        5.4902033212
  H         8.0655740485        5.5949985511        4.8741378496
  H         8.5556166875        4.8360981402        3.3254310490
  C         7.3439962748        6.6503353383        3.0827676408
  C        11.8686585102        0.3805414176        1.2193829916
  C        12.2236460761        2.4042792828       -0.0401105376
  H        13.4341473094        1.4789333725       16.7055296335
  H        11.9384838734        1.4417879572       17.6365595121
  C        12.8245805016        3.4304161014       17.3805382997
  H         7.0184059179       10.0367737036       16.1990611407
  C         6.4297580814        8.6146820050       17.5645523748
  H        14.0888603357        7.3077824366        6.1781476628
  H        15.1967010757        7.0878610436        4.7216510917
  C        15.4001969125        5.5641889649        6.2256611491
  H         6.8097833346        6.9962528971        3.9686989029
  H         7.8590095704        7.5041359814        2.5827166725
  C         6.4184074996        6.0405192550        2.0740862217
  N        11.4223568218       -0.4767094813        2.2446072584
  C        12.1795695057       -0.3441748683        0.0513950352
  C        12.4796208307        1.7129671250       -1.2499126800
  H        12.0647483781        3.4828048438       -0.1555494475
  H        12.1093314382        4.1862584737       17.1437839766
  H        13.7535225157        3.8928182700       17.0521340084
  H        12.8017749552        3.4099575840       18.4842111878
  S         6.0188470528        7.0607999355       18.2109732945
  C         6.4563814649        9.6921550057       18.6081817394
  H        14.7763563994        5.3839531041        7.1265059982
  H        15.4592211940        4.6360138578        5.6386546483
  C        16.7640818747        6.1723284970        6.4997795561
  H         6.3095847373        5.0691907446        2.4632329116
  H         6.8378299709        5.9683608407        1.0295408759
  C         5.0410998929        6.6972392854        1.9834359617
  S        11.5020943845       -2.0724349611        1.7718635600
  N        12.0038523985       -1.7228153366        0.2289335607
  C        12.5149180378        0.2019217949       -1.2437039286
  H        12.6540739085        2.2867055546       -2.1342403134
  C         5.7950750755        7.8089170943       19.7391544002
  N         6.0683023806        9.0811762955       19.7828410261
  O         6.7889894321       10.8878458329       18.3886251954
  H        17.1581616965        6.4856202604        5.4814007263
  H        16.7553088850        7.1162023871        7.0833254402
  C        17.7186242498        5.1447107730        7.1323303041
  H         4.3567191253        5.9032163151        1.6060589311
  H         4.5029259805        6.9516978572        2.9148470499
  C         5.1222653629        7.9212004558        1.0168639634
  C        12.8159321904       -0.6473346236       -2.3517140903
  S         5.1376095510        7.0082524615       21.1588454764
  C         6.0329227077        9.8387826029       21.0404743870
  H        17.3121091208        4.8760619548        8.0862554428
  H        17.8546199564        4.2405030790        6.5572456602
  C        19.1671546897        5.7215752523        7.3329636986
  H         5.0798919456        7.5390091781        0.0145907103
  H         5.9796962755        8.5780028648        1.0421142616
  C         3.9154213195        8.8741336531        1.2011042637
  H        12.3033234399       -1.5965499272       -2.2759438728
  C        13.2109100282       -0.3550763919       -3.5950240454
  H         5.1029775620        9.6480767578       21.5733517762
  H         5.9891850776       10.9831660622       20.7455043187
  C         7.2189886448        9.5293673812       21.8703026757
  H        19.7547454097        5.0552879479        7.9624274466
  H        19.2230976758        6.6493618198        7.8521814521
  C        19.8571060103        5.9073571533        6.0562718779
  H         3.7203704103        9.4093672552        0.2561241396
  H         3.0310006910        8.3550368183        1.5071957700
  C         4.1921389922        9.9161573626        2.3506981133
  S        13.9318613543        1.0670865503       -4.1244925153
  C        13.2067992864       -1.4547591345       -4.5725793600
  H         6.8530260187        8.9323980833       22.7160630379
  H         7.7894147952       10.3874982111       22.2697224951
  H         7.7860446883        8.7963991085       21.3208367439
  H        19.5923612541        6.7795438591        5.5850208565
  H        20.9381561648        5.9594728908        6.2908460919
  H        19.7328251178        5.0917813738        5.3410325539
  H         3.3456038395        9.9698804305        3.0598567320
  H         5.1333191352        9.8306389954        2.9269139666
  H         4.2360113615       10.8744759452        1.8995784396
  C        14.2338429454        0.2544595890       -5.6610147938
  N        13.8761261416       -1.0338325303       -5.6742731399
  O        12.8571907419       -2.6159834498       -4.2366747796
  S        14.9766982092        0.9868405157       -7.0379035874
  C        14.1444304143       -1.9700883894       -6.8221762556
  H        14.1466123476       -2.9435778377       -6.3920279981
  H        15.1645383878       -1.8497967742       -7.3259538511
  C        12.9110208770       -1.8694368614       -7.7865927475
  H        12.4671039302       -0.8393966877       -7.7160052482
  H        12.1462121121       -2.5529270340       -7.3319742642
  H        12.9442820372       -2.1680605156       -8.8902147117
  H        -2.5170056008       15.5679192891       16.5241055570
  C        -2.4744972085       14.5079013014       16.6375475292
  H        -3.3697698977       14.2705664985       17.1862728007
  C        -1.2068310109       14.1028879766       17.4282876623
  C        -2.4746907551       13.7990234733       15.2327490756
  C        -1.5631720882       13.3258510237       18.6887035878
  H        -0.5889067079       13.5346255792       16.7395528834
  H        -0.4897514567       14.9050659413       17.7345463038
  H        -1.7716235069       14.2682940964       14.5571176896
  H        -2.2727550695       12.7601777659       15.3811255097
  H        -3.4238924376       13.9854942861       14.8417441347
  C        -2.2454937444       14.2894583795       19.7678022702
  H        -0.6092022201       12.9307475987       18.9609715703
  H        -2.2676366608       12.4735651553       18.4717768860
  C        -2.5352152710       13.6214997487       21.2123868230
  H        -1.6199284530       15.1142590702       19.9580597873
  H        -3.1659192876       14.6590827221       19.3612006405
  C        -1.3375736306       12.9622547674       21.9349684508
  H        -3.3792240775       12.9005629191       21.1225323749
  H        -2.8057901599       14.4503894731       21.8927569374
  C        -0.0884717246       13.8370763852       22.3520528537
  H        -1.7444951370       12.5603180656       22.8838653122
  H        -0.9469733261       12.1799219482       21.3071125743
  C         1.0449679260       13.1317023117       23.1427682929
  H         0.3937736695       14.0525112874       21.4249891619
  H        -0.3527995403       14.7031085629       22.9009620522
  C         1.3864574496       11.7686092835       22.5216943662
  C         0.6415192358       12.4177983877       24.4112957118
  C         2.3296795858       13.9671063183       23.3377298801
  C         1.3283527470       10.6397635226       23.3613415657
  C         1.7424976228       11.3383411511       21.2715290714
  C         0.8115641668       11.0675226447       24.5527041797
  C         0.1266811714       12.9870425330       25.5501622396
  H         2.4262991507       14.5946381140       22.4369870475
  H         2.1638166259       14.6899527416       24.1702697400
  C         3.5250658823       13.1043418894       23.5910566788
  S         1.7439643337        9.1541309095       22.6460440205
  C         2.0523753137       10.0084299838       21.1444969336
  H         1.9683290944       12.0722154860       20.5960676181
  C         0.4268500397       10.4642326330       25.6705577750
  H        -0.0103627662       14.0406991827       25.4778042643
  C        -0.3271797940       12.3347188342       26.6619720942
  H         3.8873640978       12.5602402376       22.7075585891
  H         3.4088902666       12.4323278128       24.4544626592
  C         4.7453449725       13.9417229815       24.0846223984
  C         2.5773229717        9.3142008592       19.9242397596
  C        -0.1358241737       11.0458299960       26.8233830873
  H         0.6992821098        9.3839685780       25.6955624330
  C        -0.7439304931       12.7097609775       27.9422993208
  H         5.4725029484       13.2766060319       24.4749333839
  H         4.4109023294       14.5729191681       24.9591894019
  C         5.4715022172       14.8644900342       22.9928396428
  C         2.2949258907        7.9854308168       19.5638068707
  C         2.9645954262       10.1634668561       18.7613317803
  C        -0.5226492589       10.3311863531       28.0740285399
  C        -0.8031276259       11.6181846248       28.7716327711
  S        -1.0520151712       14.2208416843       28.6193306890
  H         5.9460867062       15.6291307683       23.5680702645
  H         4.7175617671       15.3867996839       22.3656448828
  C         6.4982174329       14.0786149390       22.1560257208
  N         1.8322555193        7.0108127489       20.4262714546
  C         2.6557889681        7.5093372830       18.3221169352
  C         3.2999984066        9.6872516552       17.5207411436
  H         3.2148678085       11.2424204283       18.8777673792
  C         0.6623985812        9.5246342168       28.7725419390
  C        -1.7462613780        9.4323875230       27.8380486817
  C        -1.1868120130       12.0995322767       30.0517185981
  C        -1.3619847528       13.4335584358       30.1178872082
  H         7.3934469613       14.6788392690       22.1965255946
  H         6.7022867071       13.0981073726       22.5283207670
  C         6.1731540833       13.8878568959       20.6565262773
  S         1.9698882019        5.5648068478       19.7226161953
  N         2.5317765673        6.0790519068       18.2760906300
  C         3.1474704220        8.2310184396       17.2292640604
  H         3.7307552406       10.4015446514       16.8532153400
  H         0.9882066727        8.8303684706       27.9745258278
  H         0.1927891854        9.0218836751       29.6334148893
  C         1.8878896602       10.4070140298       29.1360448579
  H        -1.3791491914        8.7064451353       27.1809308840
  H        -2.0086435049        8.8866901624       28.7841558252
  C        -2.9880108422       10.2262574499       27.3249837762
  H        -1.1396605558       11.3644812197       30.8314996054
  C        -1.7177691008       14.2333691783       31.4037140425
  H         5.6357997164       14.7849532416       20.2220490331
  H         5.3921231734       13.1202986605       20.5272754785
  C         7.4491713084       13.5494854332       19.8984762375
  C         3.3294472672        7.5797936553       16.0290932622
  H         2.3910040501       10.7161191368       28.1981306512
  H         1.6314037388       11.2861068737       29.7624022985
  C         3.0613316404        9.6680824944       29.8469373135
  H        -2.6915183164       10.7404248570       26.4355271487
  H        -3.2022831386       11.1806510725       27.9248763004
  C        -4.1932812948        9.3034134314       27.1356479328
  C        -1.7262174680       15.6280356526       31.4870540359
  C        -1.9326812218       13.4808242346       32.6519686122
  H         8.1763531512       14.2100801719       20.2878046669
  H         7.7718845370       12.5009294657       20.0539256983
  C         7.3633959056       13.8599020450       18.4141188341
  H         3.7257607942        6.5962492904       16.1287338478
  C         3.5758759579        8.0378815563       14.7343526819
  H         3.3541763106        8.7824127053       29.2136737434
  H         2.6706738827        9.3386050449       30.8127318216
  C         4.2555131492       10.5793867418       30.1680812939
  H        -4.0113039446        8.7434421340       26.2481089898
  H        -4.3063751615        8.6964256917       27.9664598858
  C        -5.4562888257       10.1502414796       26.9968841404
  N        -1.4687395607       16.4619015201       30.4124850438
  C        -1.9388147424       16.2615403333       32.7082882558
  C        -2.2400470938       14.0876840896       33.8732266937
  H        -2.0174797043       12.3822500549       32.6663970578
  H         7.9766575800       13.2767231157       17.7223124841
  H         6.3678420704       13.5442339617       18.1690598126
  H         7.5007697610       14.9305284551       18.2504983982
  S         3.7595902148        9.6536570829       14.2069467905
  C         3.7615903377        7.0437359907       13.7177114988
  H         4.1461260150       11.3805020921       29.5412736054
  H         4.1198644326       11.0807430800       31.1426749557
  C         5.6660725313        9.8213238848       30.1160537771
  H        -5.4621010946       11.1523744719       27.4020152588
  H        -6.3180946742        9.6553806427       27.4439774435
  C        -5.7681960783       10.1610706119       25.4938979345
  S        -1.5862093002       17.9444234024       30.9757033039
  N        -1.8216659425       17.6129514140       32.5667911837
  C        -2.3297913772       15.6128407195       33.8711004028
  H        -2.4590608366       13.5138516856       34.8037818375
  C         4.0277614377        8.9918088528       12.6307365658
  N         4.0311928171        7.6333248230       12.5257897767
  O         3.6744168212        5.8831360717       13.8447448092
  H         6.4447571034       10.6229610373       30.4236761794
  H         5.7434665574        9.4479661019       29.1058587512
  C         5.7961536076        8.5962496422       31.0868346615
  H        -4.9901529437       10.5350508149       24.9206700708
  H        -5.9390387897        9.1175647610       25.0984581143
  C        -7.0182750236       11.1058098824       25.2042792347
  C        -2.5013948666       16.4508798069       35.0467914797
  S         4.5739833948        9.9666146380       11.2851049212
  C         4.1026536963        6.7049872167       11.3455590690
  H         6.3772485568        8.8144021191       31.9558769091
  H         4.7929399784        8.3010893025       31.3883981555
  C         6.5280588507        7.4878447591       30.3648730397
  H        -7.0987260672       11.3568850211       24.1311084533
  H        -6.7933083921       12.0326180686       25.7016124565
  C        -8.2444794365       10.4349978407       25.7288367343
  H        -2.0242573716       17.4911495511       35.0177646415
  C        -3.1902976408       16.2744743094       36.1991640847
  H         5.1002023504        6.8402852820       10.9112676278
  H         3.9971538706        5.5783017850       11.5207877920
  C         2.9683268767        7.0477264168       10.4439160179
  H         7.4952632435        7.8982406545       30.0516997846
  H         6.1744259240        7.1621483953       29.3853494059
  C         6.7218154411        6.1631791682       31.1682075989
  H        -8.9683940782       10.2972924878       24.9461400082
  H        -8.0890168831        9.4358030438       26.1433645243
  C        -8.8691013561       11.1919673965       26.9154982275
  S        -4.0768914564       14.8712175845       36.6634402235
  C        -3.1520752777       17.4086330754       37.1995976804
  H         2.6554390767        6.3051909346        9.7247725062
  H         2.0524969315        7.3020133637       10.9679486136
  H         3.4265655462        7.8399589554        9.8844352763
  H         6.4073276225        6.2495693909       32.1900834117
  H         7.7543995519        5.9027667119       31.1703545597
  H         6.3203373228        5.3009241390       30.6765438891
  H        -9.0694498823       12.1941178718       26.7734986235
  H        -8.3017456965       10.9682189565       27.7992452368
  H        -9.8422875221       10.7761023952       26.9691336024
  C        -4.2230507861       15.7029420527       38.1880436521
  N        -3.9689540254       17.0308166286       38.1885615074
  O        -2.6910199587       18.5445715027       36.9441695806
  S        -4.9108310200       15.0549179462       39.6619168241
  C        -4.1087178430       17.9099365886       39.3221168123
  H        -4.3574737819       18.9570360373       38.9046119921
  H        -4.8578762442       17.5975889835       40.0492100140
  C        -2.8056098377       17.8642140968       40.1491007617
  H        -2.5957219743       16.9035568040       40.7234306526
  H        -1.8624193898       18.1337896563       39.5550645252
  H        -2.7661796788       18.6401742757       40.9001798649
