352
i=
  H         4.4003115156        0.7607831699       12.4656942012
  C         3.8694595782        1.7188294549       12.3728966987
  H         4.6776431516        2.4707368927       12.5707107910
  C         3.3015891063        1.7823694939       11.0183357721
  C         2.8165750935        1.8672749593       13.4997782848
  C         4.3190104734        2.0926995581        9.9336334356
  H         2.6417202069        2.5749961711       10.8596498123
  H         2.7787790787        0.8613634128       10.8377609306
  H         3.3711456942        2.4149602935       14.2872653864
  H         2.5802771013        0.8825268119       13.9313597735
  H         1.8927113402        2.2896694451       13.1080499805
  C         5.1484234437        0.9260888709        9.4088695658
  H         3.8806622450        2.6468495534        9.0849350606
  H         4.9669762916        2.8962505755       10.3294068147
  C         5.8870305997        1.1993626811        8.1535539307
  H         4.4883942708        0.0212259243        9.2808579734
  H         5.8484381478        0.8281137593       10.2423977903
  C         6.9940294645        2.2706445245        8.3759866290
  H         5.1528074787        1.6014111239        7.3895281851
  H         6.3261782731        0.2692604344        7.7978152014
  C         8.3164628767        1.8068592852        9.0708723967
  H         7.1310964533        2.8737306826        7.4804950601
  H         6.5483354621        2.9890269922        9.1222281905
  C         9.4313260136        2.9035214411        9.2206969823
  H         8.7946667603        0.8816467087        8.6972398152
  H         7.9877281676        1.5022541620       10.0952121906
  C         8.9218468638        4.2237711530        9.8452667777
  C         9.6899399804        3.6212172568        7.9822698999
  C        10.6085199254        2.4004158006       10.1318801882
  C         9.1458208982        5.3482670059        9.0468582015
  C         8.3938647782        4.5743465074       11.0710970063
  C         9.6460088266        4.9568170588        7.8324346764
  C        10.1280681258        2.9553607401        6.8314186162
  H        10.1419551947        2.1875390310       11.1608025632
  H        10.7845912831        1.3896551820        9.7266497199
  C        11.8600525198        3.3206255359       10.1452999007
  S         8.7014248055        6.8346374170        9.8060665446
  C         8.1509205794        5.9269832646       11.2033446413
  H         8.0611528930        3.7960660076       11.7471375719
  C         9.9738211523        5.5808759200        6.7070181818
  H        10.1435787491        1.9028280825        6.9801525094
  C        10.4055603287        3.5940902617        5.6372294052
  H        11.8270485577        4.4340566467       10.2882844088
  H        12.4107727647        3.2594359191        9.2227355701
  C        12.8578522027        2.7813001089       11.1523280754
  C         7.5638759711        6.5495629721       12.4259423235
  C        10.3823011638        4.9288059321        5.5299438882
  H         9.8469874553        6.6610368230        6.6591877440
  C        10.7938625720        3.1353091194        4.3833886122
  H        13.8495583072        3.1745715932       10.8486272020
  H        12.8229996664        1.7250206781       10.9830257611
  C        12.4775274911        3.1930565096       12.5367055184
  C         7.5096836950        7.8976021989       12.7346285128
  C         7.2205359170        5.5920997289       13.5333405631
  C        10.7152150880        5.6323832850        4.2526332227
  C        10.9949115694        4.2312399124        3.5659565775
  S        10.9196160092        1.5996461208        3.5622822528
  H        13.0239418523        4.1008194874       12.8697690675
  H        11.3668461934        3.2348588141       12.7339468056
  C        12.9834414846        2.2222926459       13.5896620590
  N         7.7777376153        8.9290851795       11.8208131690
  C         7.2300817010        8.3695386891       14.0251647445
  C         6.9805481229        6.0315024838       14.8097188769
  H         6.9765378684        4.4830153344       13.3442358080
  C        11.9636917237        6.5607455434        4.4917454628
  C         9.6616795478        6.4903053917        3.5595099792
  C        11.3486521163        3.8203306603        2.2566884986
  C        11.4208592896        2.4594549080        2.1486841102
  H        13.9431765997        2.6195060303       13.7017828654
  H        12.9736760805        1.1483948660       13.3649055318
  C        12.1271925592        2.2340934902       14.8925347464
  S         7.4499148806       10.3411973374       12.5271914830
  N         7.1699757169        9.7757194555       14.1059572464
  C         6.9586570150        7.4746443673       15.1391687491
  H         6.7749632051        5.3081355869       15.5975431247
  H        11.7544279815        7.3318844177        5.2354440416
  H        12.1099924694        7.2479344353        3.6530999195
  C        13.2120829658        5.6684869197        4.8136274317
  H         9.5192967050        7.3999878363        4.1510618304
  H        10.0231012444        6.9068286530        2.5510487382
  C         8.3607027768        5.7914588362        3.1784591270
  H        11.5363140609        4.5768192517        1.5530823278
  C        11.6517029505        1.7483095059        0.8814129775
  H        11.8487972310        3.2646952077       14.9481814083
  H        11.1930097027        1.7367086999       14.8715473002
  C        12.9098018620        1.9552548620       16.1297676305
  C         6.6548925977        8.1344077796       16.3924799582
  H        12.9295621420        5.0216422875        5.6761663176
  H        13.4275918221        5.1383461694        3.9288558164
  C        14.4157244513        6.5643831801        5.1675265127
  H         7.9519632157        5.1826807518        4.0047230761
  H         8.4543431364        5.3350925088        2.1919133155
  C         7.3452938168        6.8461675749        2.8766182495
  C        11.7234362732        0.3755679818        0.6389229650
  C        11.8348834930        2.6012642475       -0.3546188971
  H        13.4330708676        2.8628059324       16.3359928890
  H        13.6753833847        1.1582944618       16.0293660024
  C        12.1545685285        1.7214402219       17.4744687118
  H         7.0120853968        9.1275721708       16.3922915743
  C         6.3281293717        7.6569724470       17.6592630504
  H        14.3119303680        7.0867430270        6.1348842586
  H        14.4923692437        7.3092868073        4.4398642054
  C        15.7644441308        5.7767780979        5.1500967781
  H         7.2203483542        7.4312783465        3.7932600257
  H         7.7748907578        7.4418103581        2.0861364711
  C         6.0458456788        6.1469138620        2.3487610160
  N        11.7063232216       -0.5712924247        1.6917748494
  C        11.9085569342       -0.1935766049       -0.6449910060
  C        12.1574597033        2.0557921933       -1.6004659983
  H        11.7372836893        3.6184614489       -0.2561462560
  H        12.1318644612        2.6258309967       18.0437126856
  H        12.7351994567        1.0718073354       18.0221532518
  H        11.2071959417        1.2324632388       17.2725543774
  S         5.9261484941        5.9916207659       18.1073272284
  C         6.1671977834        8.6785680808       18.7476193904
  H        15.6548407282        4.7579822252        5.4949565353
  H        16.3022065060        5.7691945031        4.1963852499
  C        16.8285135946        6.3322243044        6.1585736022
  H         5.6711991821        5.7074622020        3.2259358148
  H         6.2912328660        5.3126040394        1.6832467975
  C         4.9744364960        6.9876683709        1.6655545971
  S        11.6377609471       -2.0801244917        1.0622487260
  N        11.7975137645       -1.6185326717       -0.5199057180
  C        12.1910685823        0.5476626642       -1.7927491286
  H        12.1399825299        2.7876255907       -2.4116077880
  C         5.7435532299        6.6516750353       19.6652057734
  N         5.7821845588        8.0016087126       19.8289166200
  O         6.4212763233        9.8552111779       18.6745779873
  H        17.3789599474        7.0671336583        5.7175711748
  H        16.3696524979        6.8430823379        6.9503931380
  C        17.5566581866        5.2879356486        6.8548541708
  H         5.2915281497        7.3577126270        0.7151880268
  H         4.2143758942        6.2569556930        1.3039209925
  C         4.3545966967        7.9749425549        2.5661199014
  C        12.4807536517       -0.1705497314       -2.9758521024
  S         5.3373681183        5.7698274361       21.1529692018
  C         5.8338437830        8.6870453697       21.1448648858
  H        16.9778438205        4.7997501734        7.6064973194
  H        17.9097079736        4.4558727448        6.2006550897
  C        18.7829021212        5.9016719729        7.5642396777
  H         5.1360938835        8.7147228819        2.8347226124
  H         3.8868937116        7.4601910878        3.4424621493
  C         3.1568280235        8.6214800185        1.9276218628
  H        12.3720714787       -1.2113480461       -2.9013304949
  C        13.0056878932        0.1912869323       -4.2005389181
  H         5.0098364281        8.2877141254       21.8173056195
  H         5.4324911780        9.7116101034       21.0567629558
  C         7.2282043174        8.6838731740       21.7704901475
  H        19.0698159795        5.2422682492        8.3214809248
  H        18.4907449245        6.8296704496        8.0800328553
  C        19.9717606394        6.2685954293        6.6380794978
  H         2.7230549489        7.9931191411        1.2315027235
  H         2.5030519354        8.8497598471        2.7335559278
  C         3.4289106650        9.9255882886        1.2225589027
  S        13.6409988282        1.7305131221       -4.7178305582
  C        13.0758322276       -0.8279482101       -5.2449681292
  H         7.2800436195        7.9551323827       22.5647899560
  H         7.4083526332        9.7275341498       22.0733194444
  H         7.9331309368        8.4432694653       20.9902540045
  H        20.9177656170        6.3147531064        7.1871736761
  H        20.0588619467        5.5302258174        5.8005397692
  H        19.9193130699        7.1963725876        6.1308254170
  H         4.3427023314        9.8471160932        0.6666171905
  H         2.7234677822       10.0605590832        0.3931232003
  H         3.5522220707       10.7004458369        1.9207557967
  C        13.8593007373        1.0187909077       -6.2938728089
  N        13.6280345771       -0.3010647432       -6.2857947961
  O        12.7771200695       -2.0094169880       -5.0540333129
  S        14.4967348586        1.8485417616       -7.7199462221
  C        13.9236729508       -1.1952283932       -7.3848750184
  H        14.2596399601       -2.2229016797       -7.0075444033
  H        14.8496834183       -0.9019844428       -8.0070165315
  C        12.7531531054       -1.3371998421       -8.3247426936
  H        12.3589262531       -0.3546724042       -8.6036575556
  H        11.8996023009       -1.8119046340       -7.7955485334
  H        12.9445805692       -1.9855610011       -9.1540075775
  H        -3.6786757468       14.1132980061       16.1700176862
  C        -3.2767679073       13.1755533991       15.9669668625
  H        -4.1288691495       12.4780290645       16.0424932776
  C        -2.1877729150       12.9418998848       17.0272615408
  C        -2.7609262326       13.0775843467       14.5777800554
  C        -2.4992226559       13.6672529580       18.3224696541
  H        -2.1066475384       11.8168757500       17.0222481838
  H        -1.2225038846       13.3207551736       16.7133247634
  H        -3.5317305322       12.7098310078       13.9095346781
  H        -2.4944559092       14.0673788327       14.1548933221
  H        -1.8840624325       12.5289757796       14.4673937857
  C        -1.7649873769       12.9100488105       19.4598292635
  H        -3.5730033754       13.8107288941       18.5676948509
  H        -2.1511054399       14.6942473195       18.3698943045
  C        -2.1839641831       13.3339612992       20.8463813303
  H        -2.0850443758       11.8374960712       19.2709611019
  H        -0.7073147292       13.0733499767       19.3088235837
  C        -1.3040061335       12.6384638613       21.8505014353
  H        -3.2128210209       13.0488930717       20.9502695438
  H        -2.0725775225       14.4163321563       20.9175776908
  C        -0.2046212742       13.5314020267       22.3514998900
  H        -1.8812905395       12.2884182758       22.7149981781
  H        -0.9807818240       11.7823176901       21.2800781266
  C         0.9180797770       12.7773391813       23.0846573837
  H         0.2229822727       14.0342986403       21.4541695224
  H        -0.5378912160       14.3945400824       22.9491235609
  C         1.3073561632       11.4972762073       22.4219078199
  C         0.5243994756       12.0834880191       24.4011636716
  C         2.1594676917       13.6648499070       23.3393445414
  C         1.0045183871       10.4220116781       23.2052459500
  C         1.7913522802       11.0663131645       21.1670839344
  C         0.4872530109       10.6994001032       24.4492224787
  C        -0.0026148721       12.6294809940       25.5723661937
  H         2.3778603699       14.2635680277       22.4863569693
  H         1.9943368780       14.5151594034       24.0027364084
  C         3.3909524034       12.9286370671       23.9377078304
  S         1.3217695655        8.9191342116       22.4366332363
  C         1.9905237134        9.7189280671       21.1333540772
  H         1.9700641162       11.8815200946       20.4527451602
  C         0.1058702728       10.0396674434       25.6380478386
  H        -0.0347704017       13.7103840803       25.4220491787
  C        -0.3280811672       11.9764345860       26.6962880675
  H         3.7122734864       12.0811613187       23.3256107315
  H         3.0862736976       12.3879436384       24.7967985165
  C         4.5333316575       13.8318951152       24.3009200933
  C         2.3527378253        8.9147247361       19.8841769994
  C        -0.3146603135       10.6294567628       26.7889490377
  H         0.0960252127        8.9791469174       25.6054069760
  C        -0.7315669017       12.3478260980       27.9803291864
  H         5.1634883165       13.2751041489       24.9608288344
  H         4.2272976543       14.6612307638       24.9693948129
  C         5.1783562487       14.4965673214       23.0618787934
  C         2.3319136444        7.4972554692       19.6861051310
  C         2.7759769203        9.6927949778       18.7090705668
  C        -0.7045507085        9.8631838649       28.0273143252
  C        -0.9687820295       11.2335832824       28.7810216798
  S        -0.8897145553       13.8209036942       28.8186671764
  H         5.9508683006       15.1271932698       23.3302609873
  H         4.5561088712       15.1420585080       22.5195417120
  C         5.8215047490       13.5031768214       22.1292467524
  N         2.0218668300        6.5572063282       20.6437676310
  C         2.5268458540        6.9321087251       18.4470449392
  C         3.0090341936        9.1517890645       17.4426488414
  H         3.0030961841       10.7579840888       18.9648805489
  C         0.4646066200        8.9932176188       28.6314606385
  C        -1.9211526695        9.0519371868       27.8754869313
  C        -1.2599770113       11.6534016798       30.1470158375
  C        -1.3128464330       12.9881357427       30.3052177907
  H         6.9520204341       13.5948889770       21.9803685489
  H         5.8606625948       12.5790809371       22.6236753047
  C         4.9624084907       13.0786788117       20.9399880835
  S         1.8406703296        5.0546971732       20.0499818221
  N         2.2160431632        5.5953753552       18.4913959409
  C         2.8341425360        7.7017384572       17.2729976464
  H         3.3897254292        9.7251836210       16.6390005180
  H         0.8401310011        8.1872159964       28.0081341564
  H         0.1218219057        8.5816406376       29.5719125426
  C         1.6234533253        9.8585276716       29.0642132136
  H        -1.6853084191        8.2405434406       27.1767419313
  H        -2.1756375443        8.7131442580       28.8555648940
  C        -3.1591415931        9.8277522476       27.4928478870
  H        -1.4584119592       10.8827038464       30.9060370599
  C        -1.7262702192       13.7116120268       31.5654560201
  H         3.8948063231       13.4953738626       20.8993545144
  H         4.8524515511       12.0088228771       20.9119816288
  C         5.4256165050       13.7024567433       19.5992775705
  C         3.2190201596        7.0574486810       16.0790954027
  H         1.8615286085       10.6997614933       28.4486877718
  H         1.1987197972       10.3314615060       29.9811576865
  C         2.7970735843        8.9077106693       29.2878178029
  H        -2.9166083093       10.3435412940       26.6101873029
  H        -3.3530309400       10.5920398604       28.1926200972
  C        -4.3754235036        8.9302720440       27.1916987092
  C        -1.9076043513       15.1244274897       31.7111736292
  C        -2.0133723609       12.8370109046       32.7587113618
  H         4.7956866678       13.2913049531       18.8597729362
  H         5.3400099127       14.7448156862       19.5952050886
  C         6.8795493852       13.3379231491       19.1725443630
  H         3.1535742110        5.9895040750       16.0965236435
  C         3.5182545852        7.3863019923       14.7770320033
  H         3.1170114112        8.2144261613       28.4363236970
  H         2.3922596031        8.2380273914       30.0867129209
  C         4.0106000792        9.5995775549       29.8442737224
  H        -3.9854992366        8.5019281849       26.3040310336
  H        -4.5353574283        8.1638567958       27.9052206853
  C        -5.5143221615        9.9659364296       26.9633706868
  N        -1.7114446780       16.0722089572       30.6987504470
  C        -2.1825768269       15.6650227860       32.9449708720
  C        -2.4261779672       13.4267644245       33.9682025792
  H        -1.9730850931       11.7764835398       32.6653301971
  H         6.7798921136       12.9218603507       18.1604326486
  H         7.4539004082       14.2220287677       19.0551355641
  H         7.4335922749       12.6432631458       19.7852164371
  S         3.7471168597        8.9346256161       14.1539178031
  C         3.6712646684        6.2475646180       13.8473692716
  H         4.3479616579       10.4363989393       29.3028921884
  H         3.7643418940        9.9422670009       30.8316650244
  C         5.1669638311        8.6366365098       30.1373001621
  H        -5.1891058039       10.8177562593       26.4409238842
  H        -5.9988582677       10.3240756734       27.8898997046
  C        -6.5641648664        9.2049430081       26.0728276329
  S        -1.8922722252       17.5286136278       31.3212169645
  N        -2.2654262931       17.0236710985       32.8686869967
  C        -2.4630953896       14.8771965413       34.1352390037
  H        -2.6957524695       12.7490946305       34.7706190228
  C         3.8984083092        8.0823359140       12.5689001358
  N         3.9141675870        6.7121194448       12.5943551407
  O         3.6875418412        5.0613568818       14.1604903370
  H         6.0593899231        9.1875043450       30.5851030169
  H         5.5512722809        8.2803601804       29.1888998281
  C         4.9425404014        7.5004148124       31.0903654296
  H        -5.9753387554        8.6056378209       25.3451488806
  H        -7.1117892817        8.5194321793       26.7642705996
  C        -7.5901278391       10.1844643798       25.4033609581
  C        -2.8425677946       15.5955394479       35.3269414908
  S         4.4597551975        8.8199384102       11.0386562621
  C         3.9477634211        5.8867075558       11.4122887464
  H         5.2997457219        7.8275688241       32.0750506164
  H         3.9431196501        7.2395069637       31.1416744307
  C         5.7490609009        6.1787175489       30.6810462133
  H        -7.1304213267       10.5276977448       24.5218127297
  H        -7.7017699692       10.9823884040       26.0711474411
  C        -8.9329772906        9.4499204768       25.0786117583
  H        -2.5991820999       16.6055937702       35.3034867851
  C        -3.3375162429       15.2197600628       36.5719631982
  H         4.7636445422        6.2594378224       10.7341505833
  H         4.2358791189        4.8508281394       11.6078605403
  C         2.5590497962        6.0123482319       10.6981547645
  H         6.6801309478        6.2765712382       30.1944612380
  H         5.1760022219        5.6258961263       29.9131386951
  C         5.9177187532        5.3369983217       31.9143805852
  H        -9.3257424493        9.9859517049       24.2685701848
  H        -8.7633508929        8.4051180081       24.7538938693
  C        -9.8115601927        9.5832743747       26.3198636284
  S        -3.6472341977       13.6376408447       37.0907179899
  C        -3.4210603426       16.2802120986       37.6359903233
  H         2.3851004769        5.1220639765       10.0867028296
  H         1.8046096852        6.1663697709       11.5242867408
  H         2.5703199979        6.9730482448       10.1019831686
  H         6.0128748687        6.0237404307       32.7850282567
  H         6.8357394271        4.7111274749       31.8939364046
  H         5.0028150179        4.7341060876       32.0396046144
  H       -10.7570691558        9.1469661052       26.2453824272
  H        -9.7518034947       10.6336741139       26.7119877286
  H        -9.4517944617        9.0124681281       27.1382455597
  C        -3.8831483132       14.3155893856       38.6996880780
  N        -3.7670680395       15.6307230986       38.7558914694
  O        -3.1679801539       17.5068634560       37.4929734799
  S        -4.2242758648       13.4446412752       40.1384290310
  C        -3.9305880238       16.4996711870       39.9609822929
  H        -4.3590414786       17.5062390982       39.6505585289
  H        -4.6669825950       16.1306485359       40.6162209118
  C        -2.6569498578       16.6816662704       40.7922641012
  H        -2.3260246099       15.7330195310       41.2329803818
  H        -1.8812928010       17.0787284341       40.1772501927
  H        -2.7935189198       17.4348876477       41.5991260903
