352
i=
  H         4.3378333729        1.2694007607       12.2703854848
  C         3.7565357995        2.1847068454       12.0796043697
  H         4.4771811776        2.9391595861       12.2118665397
  C         2.8692631102        2.0238026436       10.8337753086
  C         2.7811086754        2.1906747219       13.2304995788
  C         3.7474295507        2.3568719769        9.5595060943
  H         1.8695805850        2.5690270550       10.7667822912
  H         2.5761258676        0.9695131106       10.8669517968
  H         2.5667085212        1.1660868827       13.6192872677
  H         1.9175248686        2.7844646245       12.9075337617
  H         3.1540372820        2.7191353901       14.1010758577
  C         4.6349659399        1.1981708671        9.1888561608
  H         2.9845068402        2.5362350871        8.8114792450
  H         4.2807667109        3.2395354426        9.6683962220
  C         5.5024116338        1.5201799619        7.9775360544
  H         4.1459580235        0.2863642644        8.9908982648
  H         5.2643349176        0.8801501276       10.0509023334
  C         6.7475983267        2.3375318717        8.3599504289
  H         4.8691255465        2.0726536748        7.2201842577
  H         5.8504238726        0.5272667572        7.5760697886
  C         8.0379267826        1.5846803010        8.8574026105
  H         6.9712843394        2.9683997603        7.5218129558
  H         6.5103312754        3.0747001060        9.0989452954
  C         9.3389086687        2.5141516401        8.9756045496
  H         8.2481597986        0.7939590512        8.1836312995
  H         7.8215706715        1.1510976371        9.8928793586
  C         8.9271701046        3.8350261461        9.6884960367
  C         9.6281078181        3.2280869010        7.6904489603
  C        10.5285565853        1.8294762627        9.7479100734
  C         9.0124543747        4.9150385259        8.8255578307
  C         8.4324304723        4.1647103291       10.9537595493
  C         9.4221400247        4.5207049023        7.5581862636
  C        10.0514949193        2.6349729218        6.5136935783
  H        10.0968947085        1.3451024604       10.6190757382
  H        10.9080932946        1.0575809011        9.1178269415
  C        11.7082808361        2.7937567919       10.1132213332
  S         8.6758323410        6.4041407549        9.6501946148
  C         8.1770652867        5.5159315012       11.0645896709
  H         8.4152430054        3.3964168849       11.6867811411
  C         9.6812584098        5.1464725099        6.3989027806
  H        10.0566987381        1.5803747997        6.6129906358
  C        10.2694183844        3.2793121456        5.3519620500
  H        11.4536971843        3.6574952567       10.6315625442
  H        12.0473145871        3.1732645530        9.1978492462
  C        12.8157678841        2.1142450089       10.8601746175
  C         7.6596825471        6.2142342180       12.2502542100
  C        10.1343033438        4.5950870101        5.2766786892
  H         9.5962046917        6.2319173950        6.4628593949
  C        10.6437867106        2.9224654733        4.0671270828
  H        13.7632505476        2.7531735869       10.7953849723
  H        13.1072631300        1.0899336423       10.4407101230
  C        12.3609296694        1.7186622082       12.2550266358
  C         7.6546162027        7.6437760343       12.5307390833
  C         7.2747992977        5.4117029111       13.4744472130
  C        10.5298930834        5.3424463591        3.9888117962
  C        10.7704816725        4.0326639413        3.2403790368
  S        10.8652856078        1.4450824452        3.3469119625
  H        11.6905333415        2.4908111434       12.5918413723
  H        11.7951825660        0.7172704062       12.2490675778
  C        13.4644976868        1.5108885617       13.2654011535
  N         8.1442021445        8.5447522708       11.6506479273
  C         7.3636658719        8.2308749670       13.8108751291
  C         7.0976251874        5.8890447572       14.7340902535
  H         7.0878574376        4.3660287946       13.2785306733
  C        11.9224365645        6.1074614583        4.1383550731
  C         9.3830621985        6.2242163692        3.2738158147
  C        11.2429265700        3.6132381911        1.9879676050
  C        11.3532983183        2.2255878761        1.8473302441
  H        14.0722083340        2.4447620894       13.3048785243
  H        14.1719022272        0.7190199355       12.9475900910
  C        13.0893179001        1.0843512115       14.6729342578
  S         8.1347339427       10.1133414385       12.4120862404
  N         7.5212470255        9.6451625853       13.8624665977
  C         7.1813078642        7.3795793434       14.9969170532
  H         6.9639565117        5.1039449916       15.4955328359
  H        11.7174606336        6.9347256731        4.7833232207
  H        12.1994437886        6.4883910451        3.1497867058
  C        13.0920189039        5.2945891483        4.6609178587
  H         8.9828693047        7.1043609697        3.8386727562
  H         9.9516060836        6.7796530022        2.4981134853
  C         8.2571629664        5.3360113996        2.7167960225
  H        11.4227153681        4.3539118177        1.2128662923
  C        11.6305041591        1.4911688481        0.5987875341
  H        12.6108651579        0.1228509496       14.5826825442
  H        14.0156264941        1.0322790498       15.3787122391
  C        12.1886395206        2.0676970051       15.3989406490
  C         7.0419135816        8.0196094706       16.2402993006
  H        12.9113719412        4.8091694342        5.6145862501
  H        13.4455788889        4.6124627363        3.9273675377
  C        14.3291776357        6.1490166121        4.9141642396
  H         8.0063021324        4.5288673429        3.4121826184
  H         8.7027685521        4.7935058512        1.8726180181
  C         6.9814128967        6.1024159301        2.3333146047
  C        11.6923704633        0.1173906328        0.5247160604
  C        11.8673368083        2.2592495827       -0.7052923865
  H        11.1652174841        1.9396593417       15.0613876243
  H        12.4459598791        3.0755951962       15.0076261625
  C        12.4029185409        2.0742338222       16.8961899255
  H         6.9499830438        9.0914565462       16.1047036420
  C         6.6590289481        7.6604644443       17.4715420495
  H        14.2018799032        7.0287969750        5.5971176345
  H        14.5975048262        6.4740114083        3.9441128612
  C        15.4655105704        5.2930023454        5.4873061299
  H         6.6618756001        6.7413419229        3.1909698946
  H         7.2018290390        6.7865261272        1.5132810017
  C         5.9331379445        5.1160859751        1.9594948557
  N        11.4810915469       -0.8029163487        1.5487023129
  C        12.0030216183       -0.4813723104       -0.6746596261
  C        12.2258139200        1.5949422194       -1.8407366599
  H        11.8328324647        3.3150701355       -0.6762266914
  H        13.3829983899        2.3005113416       17.1565643489
  H        12.0347985509        1.1072137907       17.3125432457
  H        11.8286506782        2.8587515670       17.3186485516
  S         6.2307932575        6.0842447771       17.9451165106
  C         6.5996834477        8.7340970385       18.4910200679
  H        15.1031489248        5.1456881741        6.4936524166
  H        15.5808911028        4.2696896163        5.0984846651
  C        16.7733493579        5.9958718270        5.5942264804
  H         5.8009960506        4.3806253098        2.6656575455
  H         6.2643941969        4.5436393680        1.0544926393
  C         4.4999077151        5.7808722061        1.5823897569
  S        11.8361903665       -2.2749250641        1.0626409757
  N        12.1570682166       -1.8893775101       -0.4849084017
  C        12.2307152492        0.1524207392       -1.8821088494
  H        12.4424920375        2.2189209924       -2.6513591522
  C         5.9760217926        6.8133368683       19.5316015949
  N         6.1397040287        8.1763530086       19.6472841617
  O         6.8747123021        9.9108641288       18.3393465749
  H        17.3150421495        5.8146947343        4.7003288020
  H        16.8895841954        7.0444271528        5.8630442688
  C        17.4976895068        5.1166051237        6.6381068388
  H         4.3754043209        5.7896234154        0.4863690139
  H         3.7319378274        5.1868841939        2.0058019778
  C         4.0755215339        7.2535170907        2.0046558370
  C        12.6951325117       -0.6851468946       -2.9923160233
  S         5.6531267203        5.8467266295       20.9145500871
  C         5.9747670535        8.9174485815       20.8734511695
  H        16.8316258670        4.9796327285        7.4688490897
  H        17.6772505099        4.1538214220        6.1415526066
  C        18.7713203188        5.6797946595        7.0788578098
  H         4.4111986329        7.4580780229        3.0202879884
  H         3.0100240690        7.3559857934        2.0337844342
  C         4.5562570370        8.3351429955        0.9921753655
  H        12.6816439068       -1.7559169869       -2.9050447496
  C        13.1911948953       -0.3817387677       -4.2588167483
  H         5.0995095333        8.5081778059       21.4495064316
  H         5.8208726874        9.9975043083       20.5895639233
  C         7.2814953095        8.7907029889       21.6537607637
  H        18.9412153755        5.2388224244        8.1060083631
  H        18.6745400782        6.7450978619        7.3253647998
  C        19.9256287187        5.4530332989        6.1449492278
  H         5.5834420077        8.2468703834        0.8794160687
  H         4.1427794354        8.0280393133       -0.0163532750
  C         3.8854513831        9.6817592150        1.5729346042
  S        13.8014785040        1.1693740610       -4.7908812112
  C        13.4997717159       -1.4663012309       -5.2289238526
  H         7.2371257098        7.9208692485       22.2823736441
  H         7.5116382449        9.7216194997       22.2038260888
  H         8.2019334491        8.6499892161       21.0394196725
  H        20.8782456341        5.2312230075        6.6591453896
  H        19.6176395430        4.8105367485        5.4290088273
  H        20.1691046133        6.3662620140        5.5831035337
  H         2.8138548991        9.6169260694        1.5860512994
  H         4.2375941888        9.9340226287        2.5678432139
  H         4.1590300590       10.5598921403        0.9472037298
  C        14.2147264768        0.3713835710       -6.3677722199
  N        14.0170581903       -0.9807707760       -6.3714732741
  O        13.2375338527       -2.6504409165       -4.9684101753
  S        15.0599507133        1.1360404951       -7.7088676162
  C        14.3397326916       -1.8961130401       -7.5527604646
  H        14.8271546931       -2.7842550423       -7.1435547691
  H        15.0640533342       -1.4794589803       -8.1884286645
  C        13.0383525477       -2.1261021453       -8.3661459632
  H        12.7048419767       -1.4049538273       -9.0542399370
  H        12.2450229445       -2.3466651871       -7.6768871194
  H        13.1971179696       -3.0226373566       -8.9549270393
  H        -3.9375183804       14.3225636362       16.0645413350
  C        -3.2087028921       13.5158261579       16.1887054862
  H        -3.6836537943       12.6391450998       16.5467025859
  C        -2.2441593614       13.8564007497       17.3312211889
  C        -2.4975867153       13.1467998630       14.8854979378
  C        -2.7936111445       13.7077966617       18.7826191072
  H        -1.4694295696       13.0334451307       17.2702520814
  H        -1.7103388195       14.7951124994       17.2433814004
  H        -2.6509748647       12.1186714957       14.6275074168
  H        -3.0234998145       13.7213192035       14.0386355165
  H        -1.4811537294       13.4442330110       14.8060001094
  C        -1.6662011622       13.7640812234       19.8295087107
  H        -3.2718541282       12.7128897221       18.9664240827
  H        -3.5206421668       14.5241472273       18.8274466448
  C        -2.1979892132       13.3193060793       21.1754963852
  H        -0.9137889483       13.0606041831       19.5390093935
  H        -1.3423310709       14.7564381115       19.9430122850
  C        -1.0983817124       12.6728311808       22.0532553784
  H        -3.0050656806       12.5438674596       21.1295553397
  H        -2.6301246214       14.1679105706       21.7180418405
  C         0.0705083349       13.6258558024       22.3011261767
  H        -1.5206296805       12.3291569095       22.9318032274
  H        -0.7411054561       11.8092364545       21.5301761273
  C         1.2572648820       12.8976007558       23.1550750749
  H         0.4960436013       14.0353676761       21.3925042890
  H        -0.2627866850       14.4504338691       22.9175752637
  C         1.5461864474       11.4786410647       22.5289331941
  C         0.7873643748       12.2439170374       24.3943365591
  C         2.5040958609       13.7713219692       23.3926194464
  C         1.1522666461       10.3843549023       23.3035724200
  C         1.9987218430       11.0643826506       21.3019868999
  C         0.7110544804       10.8670022577       24.5238820573
  C         0.3213155743       12.9067335907       25.5835055328
  H         2.5495953866       14.5181685395       22.5801181962
  H         2.1869964786       14.2570120517       24.2373044933
  C         3.8141387996       13.0875218052       23.7503767183
  S         1.4615312602        8.8896461549       22.6263803470
  C         2.0024782823        9.6826223539       21.2065039833
  H         2.4863459405       11.7499683609       20.5858049674
  C         0.3593879571       10.2210428089       25.7385584581
  H         0.3373411160       14.0185576817       25.5742670691
  C         0.0014205314       12.2380244106       26.7692282569
  H         4.1590597095       12.4532018504       22.9396760764
  H         3.5868353299       12.4738716083       24.6424110485
  C         4.9159995097       14.0388552072       24.2036516866
  C         2.4610421546        8.9745381318       19.9643313039
  C        -0.0298799973       10.8781161653       26.8949090825
  H         0.2189322711        9.1628163869       25.7104674851
  C        -0.4339065946       12.6768526416       27.9932204928
  H         5.6476092288       13.4601062851       24.7558196523
  H         4.3698928178       14.6311329727       24.9610924732
  C         5.4966088300       14.8475568070       23.0927955337
  C         2.5646214565        7.5237277761       19.8247034180
  C         2.8357472884        9.8124405321       18.8165706627
  C        -0.4239239669       10.2682166266       28.1638151998
  C        -0.6883898165       11.6034924211       28.8670436095
  S        -0.7345482590       14.2451536985       28.7293041906
  H         6.1449909955       15.5532769194       23.5681853339
  H         4.6945371918       15.4776444450       22.6563360280
  C         6.3365719823       14.1299097248       22.1024336624
  N         2.4164112605        6.5828144280       20.8098439334
  C         2.9204819745        6.9357151008       18.5814908084
  C         3.1324186434        9.2050248533       17.6678659363
  H         2.5806555780       10.9036699587       18.7545697306
  C         0.7535253304        9.5255916350       28.7931785983
  C        -1.6498361140        9.4481888406       27.9515992167
  C        -1.0368218305       12.0470168639       30.1232978026
  C        -1.1895482978       13.3971230617       30.1575014796
  H         7.1783565584       14.8039089409       21.7553708576
  H         6.6886656969       13.1126213062       22.5292902395
  C         5.5185543807       13.7779916815       20.9510611130
  S         2.3645275184        5.1439590248       20.1059702287
  N         2.8769772867        5.5681716762       18.6588531335
  C         3.1637489670        7.6947816788       17.4870256846
  H         3.2887913066        9.8250525352       16.8101363591
  H         1.0465601686        8.7283296310       28.1164008675
  H         0.3692361033        9.0662954406       29.6936277862
  C         1.9588269917       10.4180744330       29.0388903905
  H        -1.4587792259        8.7326718754       27.1016009495
  H        -1.8694089581        8.8615458107       28.7225205351
  C        -2.9748254785       10.2109109737       27.6358532200
  H        -1.1646733412       11.3344687476       30.8808626700
  C        -1.4680525931       14.1799497786       31.4147051754
  H         4.8485467680       14.5715569681       20.6945621720
  H         4.7919853502       13.0061082893       21.0593617575
  C         6.1707589357       13.5223127976       19.5459263016
  C         3.3420683699        7.0796374496       16.2576424353
  H         2.2071597199       10.9832081430       28.1396750768
  H         1.7009922068       11.2565041327       29.7215093200
  C         3.2473177621        9.6410733218       29.3498295247
  H        -2.8387553534       10.9692468093       26.9499836583
  H        -3.4211594873       10.6783945725       28.5407166034
  C        -4.0189861985        9.2698528019       26.9826204065
  C        -1.5545858035       15.6252505376       31.5360000701
  C        -1.6432507730       13.4300193703       32.6912922956
  H         5.3581561288       13.0006202799       18.9994938596
  H         6.3450673053       14.5128207612       19.1083520956
  C         7.3995884683       12.7040623935       19.6451025664
  H         2.9914019280        6.0654159862       16.2309185986
  C         3.6577342193        7.5331861094       14.9650437571
  H         3.7955399989        9.2263160595       28.4456626456
  H         2.9345294067        8.8644532237       30.0350454381
  C         4.2966799274       10.4594511221       30.0482075381
  H        -3.7386529838        8.5904631969       26.1580315261
  H        -4.4045947232        8.7472921308       27.8551171239
  C        -5.1817936675       10.1956620726       26.5371084520
  N        -1.4431742076       16.5412367171       30.5118314486
  C        -1.8132958347       16.2652347152       32.7317713013
  C        -1.9856557569       14.1121795894       33.8467377360
  H        -1.3588489613       12.4189469205       32.7463973676
  H         7.7629860852       12.4335653881       18.6097950173
  H         8.2298698550       13.3451672037       19.9707316338
  H         7.3491904659       11.7366602455       20.1316079734
  S         4.0054619901        9.1387952026       14.3672820077
  C         3.7228532734        6.4136354637       13.9718913885
  H         4.5367064004       11.1645738847       29.2586894263
  H         3.8973834509       11.0361257379       30.9005675209
  C         5.5032036903        9.6525361028       30.5105900237
  H        -4.7643123917       10.8955303315       25.9373514654
  H        -5.6214893916       10.7648964389       27.2522637594
  C        -6.3836133604        9.5572137900       25.8787406360
  S        -1.5228450480       18.0627881355       31.0506419681
  N        -1.7492282495       17.6921908168       32.6414657249
  C        -2.0448875579       15.5978375572       33.9277317776
  H        -2.0196730563       13.6080762569       34.8021333128
  C         4.1630035691        8.2961368265       12.7937626560
  N         4.0545006151        6.9164989872       12.7646918144
  O         3.5298711475        5.2225297891       14.3067971344
  H         6.1622480004       10.2636946131       31.1698770782
  H         6.1743506829        9.3396700647       29.7574514738
  C         5.2189836382        8.3566836166       31.2512121922
  H        -5.9003518417        9.0289447140       25.0921170333
  H        -7.0254527765        8.8874719748       26.4692239256
  C        -7.3709440563       10.5669582962       25.2861062242
  C        -2.3642142780       16.3858168040       35.0677213462
  S         4.5689620850        9.1046345328       11.3333346980
  C         3.9031151438        6.0996485358       11.5476095228
  H         5.9113646192        8.2455182946       32.1086862860
  H         4.2484042324        8.3364768718       31.6959136821
  C         5.3323838243        7.0757351611       30.4813234138
  H        -7.0207891198       11.0725183111       24.3506413614
  H        -7.5325677281       11.4284454070       25.9552225895
  C        -8.6880196157        9.9042644401       24.9194708978
  H        -2.1535447741       17.5243184718       35.0232397609
  C        -2.8604174276       16.0734924638       36.3198125962
  H         4.6722657295        6.2088091336       10.7696141233
  H         3.8130052586        4.9871535090       11.7442215127
  C         2.5978501926        6.4497889037       10.9114732385
  H         5.1390446868        7.2657889473       29.4155929949
  H         4.4861083418        6.5699689713       30.8653703585
  C         6.7002836013        6.3498362820       30.6695946607
  H        -9.0650769591       10.2946371253       24.0409431095
  H        -8.5177926129        8.9071915085       24.6134065598
  C        -9.7078709107        9.8670776037       26.0380418700
  S        -3.5098166738       14.5328622132       36.8578612162
  C        -2.9522373155       17.1365096036       37.3030529188
  H         2.5118649578        5.7921761721       10.0980761321
  H         1.7418525580        6.3711007654       11.5635150482
  H         2.5433295693        7.3523048950       10.3974024840
  H         7.3913147786        6.9854165867       30.2470225986
  H         6.8356327038        5.3359916058       30.2033257303
  H         6.8523706048        6.3238353771       31.7360565505
  H        -9.2087316542        9.5644423616       26.9224669268
  H       -10.5201142092        9.1580635754       25.9261170318
  H       -10.2051525427       10.8438250813       26.1406755057
  C        -3.6083388489       15.2294301547       38.4346039709
  N        -3.4829399177       16.5953708221       38.4470395463
  O        -2.5299924613       18.2877718658       37.1483532091
  S        -4.2325416587       14.4778829680       39.9376383174
  C        -3.5865324654       17.3297028883       39.6766890205
  H        -3.5715639060       18.3797603696       39.4323017922
  H        -4.5267629297       17.0335879012       40.1833890360
  C        -2.3211428372       17.1371761825       40.6157356166
  H        -1.4436725267       16.7044822516       40.1377121770
  H        -2.0948036136       18.0065160206       41.2122124225
  H        -2.4289813092       16.4441034500       41.4299907177
