352
i=
  H         3.5426634349        1.3086666976       14.0313182737
  C         4.0522415724        2.1910013298       13.6872833680
  H         5.0819405615        1.9426086871       13.4385115094
  C         3.3553784020        2.6476540074       12.3814981492
  C         4.0842397837        3.2272996757       14.7089878587
  C         4.3220850417        2.6941509970       11.2471988431
  H         2.8672414323        3.6200678672       12.4654715116
  H         2.6547918296        1.9203071529       11.9198047321
  H         4.4426988360        2.8182761911       15.6143770660
  H         3.1862348725        3.8276456236       14.8510316640
  H         4.8681291866        3.9494670983       14.6029964222
  C         4.6089284416        1.3736558564       10.5476574854
  H         4.0426326114        3.4378892913       10.5392130166
  H         5.3273965177        3.0494681302       11.7012172345
  C         5.0560759505        1.6850652091        9.1241500094
  H         3.6490676177        0.8088232234       10.4826759542
  H         5.3282640522        0.7674157249       11.0569673493
  C         6.4039647921        2.5291650037        8.8391053954
  H         4.2961588749        2.2292006109        8.6741350812
  H         5.0999925755        0.7212042455        8.5379662646
  C         7.7381269836        2.0080016122        9.2552287429
  H         6.5562486182        2.7784254532        7.8001081380
  H         6.1804301417        3.4667677998        9.3791994233
  C         8.8726775971        3.0272747378        9.3551984141
  H         7.8805099754        1.1554002089        8.5396699698
  H         7.7051399582        1.5059874399       10.1627832159
  C         8.5151855486        4.2723422764       10.0313056634
  C         9.2573505370        3.6886529877        8.0601643296
  C        10.0653520599        2.4041626915       10.0444638218
  C         8.8416041100        5.4174438621        9.2831178829
  C         8.0356716279        4.6312503309       11.2917049348
  C         9.2134115609        5.0243326415        7.9966958932
  C         9.7869931177        2.9845115287        6.9862987161
  H         9.7504353477        1.9079461335       11.0021653206
  H        10.3883122862        1.6144158741        9.3908519321
  C        11.3537405516        3.3435668364       10.2954829865
  S         8.7630363935        6.8554847878       10.1631684738
  C         8.0570110687        6.0143330400       11.5081122604
  H         7.6744584076        3.8825047657       12.0197426402
  C         9.7856295603        5.6327152580        6.9102867515
  H         9.8816806928        1.9049707056        6.9897049417
  C        10.2614412192        3.5993958776        5.9082569792
  H        11.1155275682        4.3301707401       10.6428786310
  H        11.8569669876        3.4895480922        9.2994977559
  C        12.4964401082        2.6996215997       11.1524232630
  C         7.6017701143        6.7136619750       12.7639267584
  C        10.2956903173        4.9573088889        5.8320519661
  H         9.8112133406        6.7259677924        6.8666190100
  C        10.6714384936        3.1927913100        4.6823437608
  H        13.4225818408        3.3779974607       11.1346289258
  H        12.8551265099        1.7725420056       10.7891545088
  C        11.9355059309        2.6270771353       12.6396224536
  C         7.7122852370        8.0835350872       12.9667207629
  C         7.1416222689        5.8544541465       13.8642008861
  C        10.7455748014        5.6181427698        4.5506692301
  C        10.9701117661        4.2662003282        3.8646895237
  S        10.8948862106        1.6830018777        3.8409342541
  H        12.0285599977        3.7056133460       12.9418358200
  H        10.8848910832        2.4112909435       12.5641447467
  C        12.5550616981        1.6544997001       13.5977263466
  N         8.0318546138        9.0508814265       12.0157794764
  C         7.4705013222        8.5889150297       14.2826167580
  C         6.9009318955        6.3788770685       15.1583181332
  H         6.9457706974        4.8107173725       13.6595733686
  C        12.0355726158        6.4145565026        4.8164954712
  C         9.7025921647        6.5257044479        3.8486964239
  C        11.4834991355        3.8237930554        2.5933464034
  C        11.3608378874        2.4439876866        2.4683180798
  H        13.6500958279        1.6907394509       13.4665297149
  H        12.0729240175        0.7094051495       13.2693881586
  C        12.2963649788        2.1527171081       15.0209688170
  S         8.1212655164       10.4679533101       12.8387481664
  N         7.6568685139        9.9565525145       14.3271419466
  C         7.1732016467        7.7966322223       15.4104486054
  H         6.6701093800        5.6471131071       15.9021747616
  H        11.8897973760        7.1040350127        5.6501568407
  H        12.2283473985        7.0281141361        3.9178125968
  C        13.2383280832        5.5186814784        5.1647299071
  H         9.6608001002        7.4795255119        4.3153212348
  H        10.1702292783        6.7131855985        2.8958059850
  C         8.2848624385        5.9867721936        3.5867712759
  H        11.7804393251        4.5470329615        1.8905792019
  C        11.6123321437        1.6677230903        1.1591614803
  H        11.8279768479        3.1460154161       14.9403057070
  H        11.6040954237        1.4088699294       15.3794374749
  C        13.5065878019        2.2347791009       15.9814462488
  C         7.0018698298        8.4372012013       16.6790250457
  H        13.2596515426        5.2136311013        6.1828870124
  H        13.3108046589        4.6537178495        4.4334012323
  C        14.5585630848        6.2774837076        4.9455280085
  H         7.7632817922        6.7686981601        4.0636840638
  H         8.1472986581        5.0746319006        4.2236884791
  C         7.9312660377        5.7229568951        2.1012309359
  C        11.6921167070        0.2207849152        1.0731682861
  C        11.6198950014        2.3940047854       -0.0792627018
  H        14.2217053607        3.0581592650       15.7074930112
  H        14.1163610991        1.3381719785       15.8622677517
  C        13.1378275712        2.2853298808       17.5131942486
  H         7.2044316843        9.5842211978       16.7356285515
  C         6.7070204496        7.9967648400       17.9811809508
  H        14.4856396903        7.1954276363        5.5430106999
  H        14.8142799548        6.6781681852        3.9592354302
  C        15.7608598989        5.4142314177        5.3654286981
  H         8.4505850303        6.4114783694        1.4822314908
  H         8.3558754986        4.6720163621        1.9038767978
  C         6.4523078332        5.5771816050        1.7381924574
  N        11.5218394633       -0.7051761158        2.1089503838
  C        12.0991343038       -0.3775161157       -0.1487471740
  C        12.0004271621        1.8100760475       -1.2801221895
  H        11.2279906233        3.4502677582       -0.1633994375
  H        13.8064033348        1.6807709440       18.1297590808
  H        12.1296149323        1.9496390726       17.7574425004
  H        13.1965123847        3.3405801238       17.8940531027
  S         6.4669457300        6.3875122057       18.4848253936
  C         6.7795978465        9.0463150809       19.0931841128
  H        15.9627720732        5.4694164615        6.4614170593
  H        15.5767949138        4.3918417639        5.1282555487
  C        17.0756851643        5.8457217078        4.6947809379
  H         6.1309068170        4.7173801969        2.3608034145
  H         6.1491023516        5.3026937787        0.6819893332
  C         5.6110591259        6.7771260722        2.1102399285
  S        11.6756186748       -2.1974979691        1.4755703894
  N        12.2692762098       -1.7765636063        0.0271837715
  C        12.2788581207        0.3436579639       -1.3288820503
  H        12.1314095021        2.3575522541       -2.1944497283
  C         6.3027199922        7.0763548496       20.0951633416
  N         6.4655612567        8.4087845155       20.2176869138
  O         7.1764372477       10.1962616731       18.9165644436
  H        17.0539419741        5.6799429892        3.6655522937
  H        17.0122753523        6.9596961259        4.7645005417
  C        18.3243095208        5.4109922813        5.4127482772
  H         4.7329845983        6.3040276802        2.5063483461
  H         5.8978160279        7.3686486988        3.0136215370
  C         5.3716202771        7.7385060086        0.9252458588
  C        12.6294104436       -0.3828103482       -2.4925029556
  S         5.7856422139        6.2462397212       21.5779966620
  C         6.5335709928        9.1256733865       21.5372967953
  H        18.2363021758        4.3624688277        5.7633415054
  H        19.2233594645        5.3899054177        4.7533082181
  C        18.5789823825        6.3076956309        6.5271004578
  H         5.0048607408        7.1067350952        0.1639381683
  H         6.3032157289        8.1026039172        0.5058466927
  C         4.2783729885        8.7612798966        1.1664799530
  H        12.5299018428       -1.4665598666       -2.2435968818
  C        13.1189017516       -0.0534176627       -3.7487385729
  H         5.6558103728        8.9661920416       22.1796998193
  H         6.5794620616       10.1324221893       21.3257535135
  C         7.8472079436        8.8296688977       22.3441818529
  H        17.7568450361        6.7599864188        7.0168389154
  H        19.1528099063        7.1131396941        6.1368148366
  C        19.4092678291        5.5612145089        7.6169535687
  H         3.3070497093        8.4027190841        0.8457441982
  H         4.3179328441        8.7563592153        2.2910954670
  C         4.5004378587       10.1697155503        0.7091742976
  S        13.5712146763        1.4918901153       -4.2631014934
  C        13.2797036819       -1.1990595743       -4.6974783549
  H         7.8045920889        7.8578507727       22.7879583662
  H         8.2931324860        9.4814518273       23.1005410742
  H         8.6714791490        8.7370128315       21.6314872349
  H        18.7821939902        4.7438174960        7.9698861300
  H        20.2955245681        5.0322499339        7.3236737715
  H        19.5950954285        6.2682415786        8.3941304146
  H         4.5537112500       10.3385478721       -0.3687530651
  H         3.6551300652       10.7342171122        1.1557117802
  H         5.4926103215       10.4731682925        1.0760205636
  C        14.0268604968        0.6520359437       -5.7134992505
  N        13.8265370775       -0.6763180902       -5.7810692454
  O        12.9576275241       -2.3401424425       -4.4664141340
  S        14.4844328702        1.4022299024       -7.2180410994
  C        14.0314526591       -1.4776101334       -6.9953424935
  H        14.1824546213       -2.5498361115       -6.6962937039
  H        14.9964961261       -1.1262057612       -7.4914691834
  C        12.8034609806       -1.3562415393       -7.9287649215
  H        12.9866869828       -0.7993553079       -8.8361132362
  H        11.9412654629       -0.8527823243       -7.5223168723
  H        12.6011775624       -2.3203934967       -8.3293945822
  H        -2.5649140233       14.5864385181       15.4982260683
  C        -3.0385410495       13.8455368615       16.1216937643
  H        -3.9349605943       14.2673986523       16.5694100998
  C        -2.1166636140       13.5243524359       17.3274809854
  C        -3.4794353971       12.7089599275       15.2274994455
  C        -2.6735640893       13.8031307039       18.7362343610
  H        -1.8255913613       12.4529628968       17.3078162588
  H        -1.1656499529       14.0434376612       17.0412129852
  H        -2.6872155498       12.1191371501       14.7962582888
  H        -4.2426780982       12.1101479610       15.6839059548
  H        -4.0302837475       13.2155245232       14.4439918177
  C        -1.5748475462       13.2934931644       19.7640058484
  H        -3.6965231855       13.3525034608       18.9032456026
  H        -2.7825307403       14.8462050410       18.9206882009
  C        -2.0420290933       13.5303198304       21.2407448391
  H        -1.3844213271       12.1986236410       19.5459044295
  H        -0.5803818675       13.8090681084       19.5228433883
  C        -1.0350640754       12.9871454962       22.3070562121
  H        -3.0396100205       13.0448085182       21.2998389941
  H        -2.1384633644       14.5919745401       21.4918997852
  C         0.2344618910       13.8768358621       22.3657489168
  H        -1.4964788721       13.0030299851       23.2420213762
  H        -0.7120892018       11.9440244294       22.1733391896
  C         1.4280127474       13.3492993760       23.1824696552
  H         0.6095036593       14.1154018801       21.3675513967
  H         0.0583868632       14.8532514514       22.7468931892
  C         1.8960590332       12.0523966222       22.5286743451
  C         1.0054319336       12.7143026418       24.5112133432
  C         2.5614451143       14.3599745262       23.2616606258
  C         1.8341352043       10.9728274273       23.4262981167
  C         2.5014689515       11.6051872981       21.3632942078
  C         1.2735497885       11.3517008637       24.6477066125
  C         0.4617917259       13.2579296558       25.6584519775
  H         2.7034187535       14.7028069518       22.2172696426
  H         2.1389302444       15.1703749382       23.8346276588
  C         3.7014259593       13.7475990580       24.0196053369
  S         2.4395762991        9.4706884053       22.8341820552
  C         2.8439065657       10.2541105173       21.3455156041
  H         2.7478925650       12.3136920310       20.6252414273
  C         0.9233788433       10.6819105952       25.7977182510
  H         0.2828489798       14.3515652504       25.5991339323
  C         0.2035159921       12.6147939326       26.8522628744
  H         3.9714628982       12.7383902108       23.7463430362
  H         3.3554295382       13.6929739348       25.0547920379
  C         5.0164406727       14.5238187304       24.0353440025
  C         3.2743024283        9.6092095372       20.0916311854
  C         0.3241121809       11.2695566967       26.8921514905
  H         1.0589606002        9.5912640620       25.8126963205
  C        -0.3333542398       12.9957642249       28.0754998165
  H         5.7558531127       13.9948429402       24.5480006756
  H         4.9304505814       15.4081454075       24.7245654017
  C         5.6303971662       14.9390952763       22.6732290214
  C         3.0277263212        8.2458622158       19.8071953383
  C         3.7149733102       10.4127475420       18.9678491130
  C        -0.1739831408       10.4824703378       28.0813301088
  C        -0.5782858510       11.8459646000       28.8076050886
  S        -0.6481007421       14.4274976983       28.9129931620
  H         6.2100126920       15.8454307142       22.8578719250
  H         4.8162365488       15.2073996002       22.0045868705
  C         6.7369025567       13.9201898913       22.1980316375
  N         2.6406160683        7.2623960524       20.6949240321
  C         3.2890657088        7.6851047138       18.5137434000
  C         3.8834363192        9.9136167716       17.6193301981
  H         3.9917379931       11.3522701328       19.2379642270
  C         1.0175556335        9.7368730150       28.8038646246
  C        -1.3695356793        9.5642053112       27.9452161193
  C        -0.9822049763       12.1379214088       30.0821552380
  C        -1.0092929121       13.4689264279       30.3197811609
  H         7.6395179152       14.5102495857       22.2667590925
  H         6.8440321600       13.0814459920       22.9137589484
  C         6.4743019120       13.3969726533       20.8109967598
  S         2.5629932810        5.8472734415       19.9359672726
  N         3.0493835152        6.3088407956       18.4330265024
  C         3.6033544331        8.4723727070       17.4173282934
  H         4.2542942373       10.5582015143       16.8815775440
  H         1.3693020703        8.9068864261       28.1988140850
  H         0.6148407471        9.1862319330       29.6155274794
  C         2.1882775913       10.7072293251       29.2474445951
  H        -1.1008739909        8.7003041553       27.3720677243
  H        -1.6138163895        9.2591691237       29.0370491015
  C        -2.6584039658       10.2116199492       27.2810054213
  H        -1.2651948504       11.3156279113       30.7746073230
  C        -1.3781990760       14.0925607411       31.5807810830
  H         5.6314903139       13.8894530449       20.3018747150
  H         6.2234723089       12.3751277467       20.8731993333
  C         7.7198061289       13.4782738855       19.9011096914
  C         3.6127600941        7.8092187451       16.1733270149
  H         2.5805146270       11.1868987455       28.3246739601
  H         1.8097596186       11.4782451738       29.8912253500
  C         3.2357786507        9.9115849875       30.0115545924
  H        -2.5373055764       10.5653778425       26.2930932978
  H        -2.9031893950       11.0687740234       27.8617907422
  C        -3.7907155026        9.1864789872       27.2739504836
  C        -1.3778187471       15.4813993889       31.8556218718
  C        -1.4887794332       13.2730990606       32.8141852316
  H         8.1528689053       14.5356153458       20.0186661757
  H         8.3393072264       12.6193545998       20.2273093486
  C         7.3805714433       13.3462081987       18.3942902223
  H         3.5629012412        6.7432864431       16.1484375136
  C         3.9219361988        8.2565022749       14.8703928553
  H         3.4564628810        9.1236507396       29.2768698541
  H         2.7791397722        9.3442390817       30.9010135768
  C         4.4363676990       10.6976527709       30.5722685080
  H        -3.5606355101        8.4102318952       26.5320047607
  H        -4.0123207568        8.6850069353       28.2655630137
  C        -5.1636785918        9.8266734563       26.9743438376
  N        -1.1529730335       16.4731912388       30.9046958308
  C        -1.5282713045       16.0363630164       33.1462776646
  C        -1.7186645337       13.7597293969       34.0920667711
  H        -1.4212489939       12.2223348684       32.8290730232
  H         6.8621261462       12.4299154700       18.0176009081
  H         6.8869548138       14.2156082440       17.9883007330
  H         8.2851097239       13.4030724865       17.7969600787
  S         4.2892109431        9.9425234286       14.4892080988
  C         4.0228224110        7.2980152341       13.8068828764
  H         4.4067018469       11.6989515234       30.0617275198
  H         4.3422185310       10.9539612719       31.6343609398
  C         5.8102157562       10.0266245234       30.4095691285
  H        -5.2962279211       10.7786427530       27.5094054724
  H        -5.9802473890        9.2095908560       27.4071731993
  C        -5.5462063906       10.1342225313       25.5097428177
  S        -1.2680430983       17.9187083420       31.6166185040
  N        -1.6254711024       17.4121565535       33.1317481106
  C        -1.8039550116       15.2294696670       34.2870580264
  H        -1.9103502931       13.0905412097       34.8506151470
  C         4.5453190455        9.3026366781       12.8711334935
  N         4.3658489883        7.9604954991       12.6918279868
  O         3.8382367819        6.0995409524       13.9226450014
  H         6.7585294140       10.6024997060       30.6196915336
  H         5.8768274177        9.9030438393       29.3343103960
  C         5.8716856154        8.7522130026       31.2481327113
  H        -4.7793449160       10.7805436681       25.0773768007
  H        -5.4363775173        9.1860736432       24.9706429371
  C        -6.9691142412       10.7054968900       25.2829703016
  C        -2.1114575860       15.8805742787       35.5020081254
  S         5.0981018523       10.1163548020       11.4380757338
  C         4.4216033636        7.2817989452       11.3986371740
  H         6.3970730774        8.8633799890       32.1902677577
  H         4.8452960843        8.4241154764       31.5351042958
  C         6.5889687287        7.7520811535       30.3818145851
  H        -7.0883452133       11.1026825843       24.2914767210
  H        -7.0626813778       11.5440413418       25.9362843296
  C        -8.1192459517        9.6831343755       25.6234412522
  H        -1.7730926863       16.8502752656       35.5442976982
  C        -2.7810301437       15.4512000411       36.6495970246
  H         5.0143961687        7.7074714077       10.6036217063
  H         4.9077550280        6.2943109185       11.5139405390
  C         3.0517317564        7.1580652564       10.7397498414
  H         7.5025428843        8.2010016157       29.9921199261
  H         6.0295064070        7.5553701570       29.5002604770
  C         7.1611185922        6.5011818492       31.0938717045
  H        -8.4962725285        9.2026944548       24.7012452046
  H        -7.6976935473        8.9064937974       26.2259684492
  C        -9.3330984632       10.3277255602       26.3285858273
  S        -3.4950382929       13.8387944049       36.8804430938
  C        -3.0985801345       16.4116416884       37.7358297070
  H         2.2538238864        7.7534492808       11.1586251530
  H         3.1048868158        7.4114170450        9.6622127098
  H         2.7424153633        6.1446345606       11.0096938697
  H         7.6321954753        6.8671977386       31.9814160415
  H         7.8563041356        5.9781430189       30.4650995647
  H         6.4948845392        5.7733992559       31.4855860028
  H        -9.6959818440       11.0032184026       25.6566539683
  H        -9.0310178248       10.8956857537       27.2043140685
  H       -10.1666736935        9.6338427139       26.5341567545
  C        -4.0546710200       14.5125853726       38.4078635012
  N        -3.8923490435       15.8133291281       38.6416872060
  O        -2.7830455476       17.5556265494       37.6115488977
  S        -4.6708794953       13.5291133749       39.6907642883
  C        -4.1706621944       16.4801057330       39.9563996120
  H        -4.2564860047       17.5857203851       39.8110688317
  H        -5.1360842397       16.1880893088       40.2762211056
  C        -2.9829378434       16.3037745206       40.9765403414
  H        -2.0320883236       16.4645186350       40.4312819375
  H        -2.9945162980       16.9715790209       41.8744495208
  H        -3.1639317176       15.2452438390       41.3478562321
