352
i=
  H         2.4993277848        3.6015069005       12.3696827473
  C         2.8473934040        2.5569603855       12.3234963120
  H         1.9177286394        2.0232749109       12.0358511959
  C         4.0144550147        2.2203635569       11.3670884452
  C         3.0599271025        2.1309702442       13.7170466973
  C         3.8029149358        2.1281198546        9.8589301699
  H         4.3836449107        1.2360839709       11.7878914294
  H         4.8479662965        2.8632967377       11.5637161784
  H         4.0586165679        2.4751773953       14.0544148330
  H         2.9259206203        1.0537152970       13.8795451096
  H         2.2390066454        2.5406019251       14.3041105772
  C         4.8574024597        1.1361910536        9.2279650949
  H         2.7609877965        1.7649649344        9.6329357205
  H         3.8652712007        3.1032357232        9.3153758491
  C         5.7033225676        1.7061923925        8.0501544183
  H         4.1968571677        0.2834064305        8.9159224627
  H         5.6342600862        0.7620754913        9.9107334064
  C         6.9090221218        2.6367616468        8.3897939701
  H         5.0945136483        2.2461886302        7.2668797754
  H         6.2531719367        0.9342173245        7.5342744492
  C         8.1327189341        1.8740709990        8.8505513837
  H         7.1709967231        3.3295341476        7.5731588658
  H         6.6099930311        3.3299986464        9.1242864805
  C         9.3553170672        2.8163758245        9.0672559519
  H         8.4266895978        1.0698053011        8.1281074780
  H         7.8955941209        1.2157204187        9.6962804212
  C         9.0080539366        4.1587486067        9.8171326344
  C         9.7993442494        3.6134460268        7.8727504220
  C        10.6054244464        2.0886442446        9.6762782593
  C         9.1149884113        5.2895253372        9.0427962153
  C         8.5597969197        4.4668153952       11.1052039206
  C         9.6499164318        4.9733651711        7.8408606053
  C        10.3361028551        3.0117912975        6.7060847860
  H        10.3545859873        1.5593470045       10.5991704061
  H        10.8553953102        1.3926206984        8.8700379917
  C        11.8519720632        2.9127930992        9.9919748094
  S         8.6398204840        6.7100732075        9.7503795085
  C         8.2837131477        5.8176052875       11.1608481716
  H         8.3682119332        3.6896322352       11.7886490724
  C        10.0516197913        5.6738686765        6.6993926307
  H        10.3907633639        1.9680577693        6.7868930885
  C        10.5900739069        3.7157089566        5.5685314878
  H        11.5592357864        3.9663143591       10.1930262676
  H        12.4659286048        2.9830541163        9.0460064840
  C        12.7494431252        2.3528041101       11.1020771246
  C         7.7955502391        6.4913269376       12.3745545204
  C        10.4123296460        5.0762162313        5.4714745566
  H         9.9380305533        6.7148502747        6.6591501055
  C        11.0284623196        3.3698038293        4.3107790767
  H        13.7430139621        2.7963031076       11.0949347431
  H        12.9389392481        1.3410670737       10.6826088233
  C        11.9953820768        2.2410532799       12.4093540530
  C         7.8343445917        7.8504628770       12.7007530488
  C         7.4135777109        5.6633242639       13.5145981297
  C        10.8013813467        5.7946394738        4.1742368035
  C        11.1038492551        4.4470911405        3.4810844543
  S        11.2084975229        1.8371089349        3.5430270649
  H        11.3976802194        3.1406086053       12.4502397471
  H        11.3090741029        1.3195124362       12.4763336508
  C        12.9842703828        2.2029262099       13.5615201968
  N         8.3783503092        8.8648406970       11.8967493285
  C         7.5564351491        8.3857653735       13.9613773411
  C         7.1788469096        6.1649494400       14.7803432412
  H         7.3820541019        4.5726923343       13.5074190397
  C        12.1890702739        6.6431913885        4.3604371756
  C         9.5138839484        6.5989599417        3.6396392737
  C        11.5305794812        4.0659665199        2.1848421032
  C        11.5672752394        2.7036000121        2.0738029163
  H        13.7125017329        2.9583500278       13.4956908248
  H        13.5821750640        1.3583412172       13.5813207582
  C        12.3325445382        2.0668552833       14.9652943266
  S         8.2754091926       10.2809622820       12.7553114133
  N         7.5510863134        9.7465474061       14.0339001455
  C         7.3187653329        7.5985697914       15.1023778923
  H         6.8296508408        5.4911903873       15.5576913247
  H        12.0160416534        7.4497271429        5.0725026363
  H        12.5001398501        7.0808992603        3.3943502910
  C        13.3376367165        5.9023227921        4.8747527191
  H         9.0302738775        7.1342516278        4.5098306981
  H         9.7540636783        7.4111878236        2.8721167817
  C         8.3758474973        5.7045824112        3.0575860979
  H        11.6842283266        4.7992110295        1.4284533746
  C        11.7524306008        1.9562109106        0.8290951246
  H        11.6997610984        2.8594555499       15.1856966407
  H        11.6202249827        1.2829627569       15.0512189239
  C        13.3409576521        1.9833285483       16.1441990049
  C         7.1481756693        8.2582874797       16.4099091191
  H        13.1893379970        5.4705836321        5.9197057308
  H        13.5281259921        5.0416892905        4.2247513668
  C        14.6105714039        6.7177831284        4.9815419607
  H         8.1026266338        4.9691975638        3.8323111035
  H         8.7243725190        5.1924365296        2.1590841578
  C         7.1506432175        6.5725222933        2.7142936948
  C        11.7664696135        0.5147156816        0.6862231524
  C        11.9371448496        2.7487452592       -0.4346957286
  H        14.2706441035        2.3648002030       15.7065771452
  H        13.6672671625        0.9329889881       16.3776737390
  C        13.0430902213        2.9572152377       17.3002936501
  H         7.3199604347        9.3945307066       16.4209772814
  C         6.6201908265        7.8205658224       17.5847838097
  H        14.5396538601        7.5228419694        5.7578630576
  H        14.7403181480        7.1169595918        3.9445317985
  C        15.8006576979        5.8152306335        5.1359946377
  H         6.7668817885        6.9841118295        3.6072036909
  H         7.3729985464        7.2551730472        1.8683101451
  C         5.9834376135        5.6622816216        2.3446269409
  N        11.4394542501       -0.4505897604        1.6466922165
  C        12.0003333526       -0.1143788938       -0.5715722304
  C        12.1648305766        2.0773314773       -1.6352628048
  H        11.8417109035        3.8257938271       -0.3664589149
  H        13.8767462245        3.3196165159       17.8556286334
  H        12.5537212032        2.5088740014       18.1087881715
  H        12.6437371789        3.9243830874       17.1041560254
  S         6.2340864222        6.2126478537       17.9913826073
  C         6.4385557875        8.8484431298       18.6587903464
  H        15.6887641691        4.8957172303        4.4500107055
  H        16.6505921470        6.4471498565        4.7891488075
  C        16.0014712108        5.2132160116        6.4602577016
  H         5.9110665596        4.9369811839        3.1986145043
  H         6.2155914957        5.1414814667        1.4338836523
  C         4.7323058785        6.3508433045        2.2761306070
  S        11.7372944961       -1.9058439202        1.0428774343
  N        12.1215946482       -1.4721013353       -0.4648973668
  C        12.3017314728        0.5900928139       -1.7353458966
  H        12.5011744636        2.6573670585       -2.4962667998
  C         5.7738405776        6.8339634704       19.5217466654
  N         5.9132092724        8.1936068805       19.7084451413
  O         6.6631274674       10.0647486934       18.6742164349
  H        15.8924709398        5.9946922770        7.1605434772
  H        15.2856258125        4.5007268936        6.7671618506
  C        17.4211756968        4.6831763580        6.5104996104
  H         3.8952197873        5.6296455103        2.2467087728
  H         4.6186985154        6.8170814397        3.2242202182
  C         4.6615763045        7.2908285471        0.9972752203
  C        12.7025208069       -0.1819190949       -2.8558712979
  S         5.3312738477        5.8008688165       20.9165691793
  C         5.7868214706        8.9103464298       20.9792035531
  H        17.4744588789        3.9793805490        7.3440861675
  H        17.6962789876        4.1109008623        5.6289527526
  C        18.4627404653        5.8368589208        6.7658454220
  H         4.4410423897        6.7096320567        0.1037944804
  H         5.6151059783        7.8123649940        0.7762155164
  C         3.5970464347        8.3624468831        0.9879473287
  H        12.2677290052       -1.2024249073       -2.7774579258
  C        13.2144155444        0.1062686611       -4.0800711087
  H         4.9334220287        8.5358787261       21.5759039933
  H         5.5732839956        9.9015953569       20.6515910395
  C         7.0786855376        8.7966800363       21.7647575661
  H        18.6458246381        5.9105169665        7.8426286889
  H        18.0971691732        6.7758637081        6.4354539236
  C        19.7449785865        5.5290834267        6.0806392594
  H         2.9702608511        8.4723996050        0.0956527970
  H         2.9846841592        8.1608315859        1.8144604514
  C         4.2359041812        9.7639281582        1.2334950085
  S        13.8923644054        1.5761304184       -4.5327913525
  C        13.1297360672       -0.9863426064       -5.0616428923
  H         6.9633044514        8.2353320183       22.7096349050
  H         7.6158022167        9.7632208073       21.9536063504
  H         7.7054202600        8.2308317444       21.1462215834
  H        19.8051715467        6.0921081192        5.0825034747
  H        20.4631743744        5.9555613695        6.8027929037
  H        20.0071300497        4.4919660575        5.9436295058
  H         4.9886588923        9.9765709212        0.3575568004
  H         3.5241557957       10.5433587117        1.1196054571
  H         4.7927610426        9.8708446916        2.1910241748
  C        14.0879143328        0.7416870875       -6.1346352264
  N        13.8048022996       -0.5799134831       -6.1278522122
  O        12.7829355434       -2.1308910882       -4.7714589866
  S        14.8177572191        1.3273729752       -7.6924925678
  C        13.9552483069       -1.4459814064       -7.3614363259
  H        14.0766200773       -2.5086032543       -7.2045995622
  H        14.9135845277       -1.2623800654       -7.9361028120
  C        12.6038141132       -1.3558354502       -8.1308036030
  H        11.7240191738       -1.6138380342       -7.4708593792
  H        12.5547176498       -1.8558736342       -9.0666118621
  H        12.4369918802       -0.3485074363       -8.3927820744
  H        -2.8783627727       14.9577591435       15.6079583253
  C        -3.2958009666       14.1460548038       16.0785148626
  H        -4.3095717287       14.3192965018       16.2694168534
  C        -2.4825970491       13.9935229233       17.3529473486
  C        -2.9913643039       13.0703670232       15.0072104142
  C        -3.1302359386       13.2548661142       18.4177220713
  H        -1.5267927413       13.5898101784       17.1259477219
  H        -2.2716939211       15.0415656691       17.6506148394
  H        -2.0847218037       13.2964554359       14.4056465704
  H        -2.8131550259       12.1140299376       15.4674590567
  H        -3.8580133285       12.9783895525       14.3247335790
  C        -2.1059431154       12.9978044332       19.4398703311
  H        -3.5189078551       12.3878364109       18.0032317397
  H        -4.0061060471       13.9347153205       18.7549118929
  C        -2.6206445082       13.2212508608       20.8526270670
  H        -1.5840644730       12.0793732771       19.4424398921
  H        -1.3555971736       13.8775006541       19.3806671848
  C        -1.6175113513       12.6508438058       21.9311696618
  H        -3.6226840170       12.8262437237       20.9492408240
  H        -2.8183470109       14.2583268781       20.9874117891
  C        -0.4465933315       13.6662996926       22.1238345655
  H        -2.1902891450       12.6749991684       22.9147918845
  H        -1.3248111565       11.5926022899       21.7876552485
  C         0.8124081303       12.8643945646       22.6679090495
  H        -0.1115027748       14.0861547652       21.1675196784
  H        -0.7093267969       14.4613550555       22.7776693675
  C         1.1771920004       11.5088457491       22.0143115299
  C         0.6092522302       12.2147570729       23.9929303163
  C         2.0493594521       13.7936616328       22.7458965681
  C         1.2022629030       10.4330454196       22.9396007085
  C         1.5765113375       10.9667526675       20.7481751571
  C         0.7654908035       10.8784094299       24.1725724349
  C         0.1753424327       12.9069591674       25.1930956150
  H         2.2148487857       13.8523465265       21.6258218942
  H         1.7856482300       14.8006831394       23.0028866506
  C         3.3035404257       13.1518738763       23.3299326257
  S         1.5712927364        8.9348717465       22.2549639455
  C         1.8732240168        9.5988119582       20.7636986308
  H         1.7059499566       11.6544782079       19.9693736154
  C         0.3931647140       10.2452028081       25.3386398646
  H         0.1173655336       13.9605279388       25.1444619167
  C        -0.1422053995       12.3110971391       26.3908907377
  H         3.5274247973       12.2999188685       22.6767992446
  H         3.1323049013       12.8976195108       24.3510158124
  C         4.5807737000       14.0804132256       23.3006871758
  C         2.5600098197        8.8776690201       19.6922424617
  C        -0.0408040214       10.9394823085       26.4696112171
  H         0.5880292175        9.2133886200       25.4887298654
  C        -0.5078137045       12.7286146755       27.6743362882
  H         5.3065261730       13.5048071447       23.9453202242
  H         4.2260339931       15.0648503138       23.8161278054
  C         5.1885897606       14.3360857374       21.9094130402
  C         2.5232221850        7.5185438248       19.3988996393
  C         3.0831250085        9.6809385548       18.5858415073
  C        -0.3304158865       10.2859729721       27.7665225786
  C        -0.6923686828       11.6172312401       28.4740570016
  S        -0.9366158593       14.1819317034       28.3930901651
  H         5.9232130963       15.1218285028       21.9957794442
  H         4.4421705880       14.7781567624       21.2363065389
  C         5.9615246732       13.1533194219       21.2303076004
  N         2.0402578453        6.5308235574       20.2927889695
  C         2.9292103051        6.9643624729       18.2145806239
  C         3.5596096492        9.1941555230       17.3435906635
  H         3.2026727498       10.7241017794       18.8332274975
  C         0.9183961368        9.5221470169       28.2590022702
  C        -1.5794495940        9.3522336531       27.6936197561
  C        -1.0031550335       11.9339725472       29.8084118796
  C        -1.1273861927       13.3045980708       29.9290056760
  H         6.9132235611       13.2000831334       21.7878625876
  H         5.5478884431       12.2167138887       21.4723768024
  C         6.0664051315       13.3048340492       19.6798509678
  S         2.2175220745        5.0850066163       19.6233471021
  N         2.6987503287        5.5703756331       18.1860872277
  C         3.3927463049        7.7084428094       17.0903771195
  H         3.9858241905        9.9550831839       16.7239078543
  H         1.1518252183        8.7241527004       27.5665145191
  H         0.6077122889        9.1357638130       29.1945374536
  C         2.1131520115       10.3659520001       28.5722095541
  H        -1.4212109425        8.6440374423       26.8998775400
  H        -1.7039589097        8.7758180737       28.7174691675
  C        -2.9162855067       10.0264350637       27.3621266308
  H        -1.1060564424       11.1477673912       30.5402166401
  C        -1.4065348691       14.0390267682       31.1474100373
  H         5.4348175660       14.1295946122       19.2975490454
  H         5.5044009240       12.5326072389       19.1404953705
  C         7.4954536897       13.4833712063       19.2792237702
  C         3.7265832266        7.1154636782       15.8250243470
  H         2.4796621947       10.8329566875       27.6778254566
  H         1.9008642115       11.1397117684       29.3109178404
  C         3.2014667254        9.4703489476       29.1588529187
  H        -2.7900737267       10.5486871624       26.4194959447
  H        -3.1040621577       10.7775792452       28.0377737176
  C        -4.1232099753        9.0828963726       27.2505729224
  C        -1.4105339509       15.4472367689       31.3905765485
  C        -1.6931020031       13.3092808777       32.4196900437
  H         7.8568100197       14.4270051263       19.6968550220
  H         8.1653530342       12.7061239069       19.5707538404
  C         7.5656401265       13.4265997905       17.7621330099
  H         3.7001490521        6.0210000640       15.8680781483
  C         3.8436252569        7.6002535972       14.5514756707
  H         3.6847923324        8.8507601468       28.4159090747
  H         2.7307668695        8.8104077851       29.8785352497
  C         4.1912426418       10.3353583853       29.8510264683
  H        -4.0162888685        8.4708465845       26.3772610039
  H        -4.0980286106        8.4244658367       28.1052437697
  C        -5.4270879737        9.7883000529       27.0623852374
  N        -0.9600268259       16.3667033416       30.3804410703
  C        -1.7284671435       16.0680246317       32.5790333687
  C        -1.9088294765       13.9614283138       33.6351685698
  H        -1.5815793233       12.2944262533       32.4303244694
  H         7.1037304915       14.2503353708       17.2605433225
  H         8.5835038411       13.6094925695       17.4636196670
  H         7.1163699318       12.6095151882       17.2913972641
  S         4.1603752516        9.2731931408       14.1612138359
  C         4.1300318407        6.6021649151       13.4778638865
  H         4.5152425896       11.0262596848       29.1268355005
  H         3.6963534737       10.8371348488       30.6286708669
  C         5.5037229685        9.6399257320       30.3705569415
  H        -5.2843731922       10.7124828435       27.5195014344
  H        -6.2090200803        9.1430236309       27.4440630022
  C        -5.6562537339        9.9569716935       25.5613422938
  S        -0.9286498275       17.8237167154       31.0550612305
  N        -1.5685361828       17.4547589983       32.5408060293
  C        -1.9929979474       15.4076154490       33.7814920420
  H        -1.8260681722       13.2683414017       34.4692604113
  C         4.4163529795        8.6010067747       12.5046391030
  N         4.5160606629        7.2919091969       12.3684165102
  O         3.9720712505        5.4266055099       13.5586179236
  H         5.9048791536       10.2297936517       31.2307017457
  H         6.3145438112        9.7590924825       29.5776585966
  C         5.3225522533        8.2508772987       30.9455895573
  H        -4.7249819029       10.3512826744       25.1439240858
  H        -5.7863073076        8.9516398142       25.1962495720
  C        -6.8882018481       10.8325095611       25.2660142911
  C        -2.2526841298       16.1897107943       34.9616972374
  S         4.9726761586        9.6002005489       11.0760171820
  C         4.6136752289        6.5781673031       11.0972918816
  H         4.6742098359        8.2882580050       31.8169800543
  H         4.9524772233        7.5358242167       30.1597555020
  C         6.6419696237        7.7024666576       31.4911799695
  H        -6.6267430189       11.4130959845       24.4439214769
  H        -6.9609707377       11.5479279584       26.0237536691
  C        -8.2253406831       10.1244823475       24.9220222156
  H        -2.0955726348       17.2594162774       34.9276653481
  C        -2.7319830530       15.7118851566       36.1445888523
  H         5.2980442714        6.9989263439       10.4350735607
  H         4.9470161779        5.5505986870       11.3609709535
  C         3.2059620013        6.6596616440       10.3618483029
  H         6.8451975373        8.2555344500       32.4008551374
  H         7.5217364355        7.9291494822       30.9143763140
  C         6.4504374561        6.2763057207       31.9154107017
  H        -8.4824472930       10.2757839499       23.8769596601
  H        -8.1457884991        9.0352689686       25.1069501598
  C        -9.3896324277       10.7095766266       25.8048812195
  S        -3.1834735130       14.1352387114       36.5853138292
  C        -2.9373836990       16.6414105910       37.2411093775
  H         3.1456212095        7.6233005260        9.7200755709
  H         3.2767446836        5.8717094979        9.6579085173
  H         2.3549708533        6.5090983599       10.9961070431
  H         6.3934073119        6.1687509274       33.0088111415
  H         7.2455417526        5.6349085072       31.4607110486
  H         5.4132287879        5.9283530655       31.6798128118
  H        -9.0551669491       11.6287568299       26.2917041734
  H        -9.7758072490       10.0350430468       26.5667970461
  H       -10.1704649481       10.9200129097       25.0770510526
  C        -3.9652447536       14.8903236142       38.0434686380
  N        -3.6767564992       16.1275548638       38.2101169087
  O        -2.7063598013       17.8503822617       37.1989767214
  S        -4.5927946304       14.0451344362       39.4635021251
  C        -3.9739277870       16.9547582603       39.4087547323
  H        -4.2071030229       17.9762773671       39.0923228575
  H        -4.8009665966       16.5222263498       39.9477725522
  C        -2.7164541388       17.0634291722       40.3742624587
  H        -2.1736056412       17.9964774736       40.1472013079
  H        -3.0613643751       17.0731886392       41.4442412382
  H        -2.1062342141       16.2143538045       40.3051710306
