352
i=
  H         4.2671830043        1.4162675543       12.4780241731
  C         3.7550650241        2.3846036299       12.6143316123
  H         4.4097960779        3.2055566978       12.5867296953
  C         2.9141220141        2.4163775135       11.3092316672
  C         2.9165605098        2.4932118300       13.9040534376
  C         3.7514966621        2.6338791714       10.0108184605
  H         2.1448335313        3.1938912497       11.5160161064
  H         2.4000086501        1.4762621813       11.1233410208
  H         3.4358487808        2.1681055859       14.7888665062
  H         2.2496963588        1.6925818363       13.8204260487
  H         2.4430963111        3.3474612770       14.1613658367
  C         4.7591383268        1.5227274647        9.7467853770
  H         3.1159536509        2.7488982115        9.1051418847
  H         4.2839488594        3.5907381018       10.1557278872
  C         5.4146530431        1.6133797717        8.3709299387
  H         4.2249443989        0.5842427841        9.7601480608
  H         5.4488685275        1.6256409819       10.5544029875
  C         6.6079971500        2.5231555144        8.4558370286
  H         4.7601684955        1.8338299570        7.5458047445
  H         5.6094847543        0.6283073382        7.9165286270
  C         7.9363449046        1.8968064808        8.9069910949
  H         6.8153262317        2.8778186301        7.4325958801
  H         6.3487986450        3.3538688741        9.1538205128
  C         9.0771821272        2.9207143367        9.0260181925
  H         8.2282596348        1.0679066058        8.2596663996
  H         7.8194858202        1.5255192710        9.9229092938
  C         8.7205394704        4.2222186805        9.7521066231
  C         9.5240102544        3.6761197419        7.8592198410
  C        10.2923348663        2.3268122511        9.8094623575
  C         9.0257852413        5.3876954537        9.0404748134
  C         8.2437329506        4.5906804613       11.0665990382
  C         9.5143028291        5.0140420426        7.7840871824
  C         9.9811388250        3.0841260840        6.7410613435
  H        10.0241715519        2.1206222918       10.8564190719
  H        10.4232052800        1.3381547125        9.4284361847
  C        11.4690018173        3.2670121387        9.9693893776
  S         8.5038408913        6.8334002029        9.7252267854
  C         8.0267349785        5.8910990327       11.1257797020
  H         8.1173609575        3.8176840083       11.8258849493
  C         9.8370707113        5.6929736402        6.6206810574
  H        10.1208715328        2.0029803642        6.6829294839
  C        10.3303313379        3.7478982898        5.5767110328
  H        11.1237321162        4.1797001200       10.3660501669
  H        12.0378051389        3.5162275674        9.1339614304
  C        12.3349511701        2.7220472870       11.0583395401
  C         7.6683476922        6.6075207329       12.4399957063
  C        10.2085888061        5.1133541626        5.4298111114
  H         9.6660104266        6.7459257712        6.7858099448
  C        10.8320213588        3.3399117403        4.3510125718
  H        13.3825681516        2.8326846271       10.8411392746
  H        12.1120404698        1.6018170126       11.0560642190
  C        11.9938810097        3.1353447892       12.4609562875
  C         7.7673445443        8.0121910357       12.6966420173
  C         7.2125882595        5.7734942957       13.5745535591
  C        10.5352613820        5.7823085669        4.1680203189
  C        10.9260227718        4.4326614764        3.5066814747
  S        11.2911737967        1.8364262168        3.6646790450
  H        12.5009596186        3.9949700768       12.8131518313
  H        10.9624676420        3.4155529905       12.4903921113
  C        12.1517937428        2.0363805942       13.4808957168
  N         8.0072615032        9.0856801859       11.7931039005
  C         7.3265655998        8.5856754356       13.9168579958
  C         6.9275818630        6.3372489595       14.7852519818
  H         7.0524937367        4.6699324302       13.4944845814
  C        11.8145409678        6.6594298036        4.2512235217
  C         9.3905305334        6.5226254292        3.4326538570
  C        11.4360593400        4.0939955528        2.2896155035
  C        11.5996590466        2.7434730255        2.1855900933
  H        13.0396774636        1.5438616262       13.1118051464
  H        11.2609982605        1.3425587456       13.3789235718
  C        12.2907867367        2.6637005869       14.8801658677
  S         7.6323579583       10.5332748735       12.5516816936
  N         7.4499762935        9.9379312798       13.9752736006
  C         6.8884767359        7.7895578697       15.0389362781
  H         6.5538055822        5.6228709449       15.4719228975
  H        11.6933679911        7.5515703141        4.8265840995
  H        12.0571748029        7.0761303136        3.2324488641
  C        13.0917777716        5.8771845902        4.6640615341
  H         8.8390591366        7.1037081723        4.2161591123
  H         9.8136864916        7.1642468188        2.6914664324
  C         8.4780003730        5.4562790698        2.8429078523
  H        11.6178761991        4.7929879144        1.5682392732
  C        11.9021401626        1.9918254208        0.8923015103
  H        13.3061080257        2.9823140857       15.0124372117
  H        11.7771734122        3.5967636422       14.9344996358
  C        11.9489067189        1.7333425664       16.0569420885
  C         6.6146455166        8.4153814195       16.2942722954
  H        12.9015880751        5.3345392663        5.5967027045
  H        13.4448346379        5.1928406051        3.8834700955
  C        14.1866159905        6.8889686700        5.0673219487
  H         8.3597161767        4.5976919623        3.4630001285
  H         8.8860302782        5.0472968900        1.9182661277
  C         7.1313902029        6.1415328119        2.5913218118
  C        11.9701654606        0.5902499462        0.8044566761
  C        12.1182664393        2.7160558486       -0.3958178796
  H        12.1782979171        0.6905834290       15.8143055639
  H        10.8883119855        1.8257285823       16.1145814869
  C        12.6535403465        2.1255417710       17.4320730926
  H         6.7680644458        9.4812948615       16.2492377339
  C         6.3685920450        7.9023863974       17.5444539539
  H        13.7885318023        7.3588572968        5.9739492938
  H        14.3357391216        7.6872526844        4.2994645910
  C        15.5191973196        6.1525023269        5.2909640608
  H         6.8646857004        6.5688822847        3.5332125803
  H         7.1300496299        7.0418400215        1.9143176905
  C         6.0498717908        5.1501263192        2.1993925518
  N        11.7338780427       -0.3158346591        1.8630290795
  C        12.1670135983       -0.1077372087       -0.3796997912
  C        12.4172417425        2.0385175507       -1.5932285744
  H        11.8426227465        3.7371619148       -0.3500791441
  H        12.5883135710        3.1940249852       17.5633015099
  H        13.7070766363        1.9498465841       17.4725466737
  H        12.1476625063        1.7534298549       18.2419219786
  S         6.2221926750        6.2780894814       18.0341500307
  C         6.2610388221        8.9161963983       18.6322589978
  H        15.3040481339        5.0401994704        5.3211550880
  H        16.2584629231        6.1954535704        4.4708573013
  C        16.2622766131        6.6622786891        6.5278468142
  H         5.2971905731        5.1698245104        2.9898685665
  H         6.3777659921        4.1137394358        2.0605539973
  C         5.3106057014        5.6327175906        0.9118851144
  S        11.7047244917       -1.8018299714        1.2053751757
  N        12.0908298355       -1.5169428499       -0.2864625576
  C        12.4409087876        0.5140506849       -1.6252554571
  H        12.5079234701        2.5579514172       -2.4879963423
  C         5.9563362537        6.9512767450       19.6414166633
  N         6.0197939007        8.2472908786       19.7744292634
  O         6.4357202049       10.0837607714       18.4856041545
  H        16.8429829142        7.5323811320        6.1631938505
  H        15.6177242643        7.0300949755        7.2918071560
  C        17.2758688504        5.5705351912        7.0353761350
  H         5.9606385037        5.6324988396        0.0754705032
  H         4.5006006739        4.9867660791        0.6496644441
  C         4.4817785993        6.9714363880        1.2412504148
  C        12.6234713415       -0.2946738140       -2.7950806149
  S         5.5740540674        6.0122274838       21.0447021804
  C         5.8284126165        9.0832266534       20.9695285120
  H        16.9488608773        5.3156198406        8.0196964601
  H        17.1129336927        4.7301487592        6.4061971855
  C        18.7658803129        6.0417492648        7.0878018779
  H         4.9288608018        7.5286677678        2.0824723262
  H         3.4278400780        6.7250470491        1.5058483106
  C         4.3813951826        7.8363633616        0.0133456554
  H        12.3061501336       -1.3311590022       -2.7992221732
  C        13.1935149008        0.1141004615       -3.9554488654
  H         5.3730965740        8.5880427094       21.7429062748
  H         5.2870077248       10.0272501038       20.7445274335
  C         7.1990538169        9.4323426257       21.5663649088
  H        19.2599382727        5.3637068539        7.7977215649
  H        18.7944028522        7.1044621789        7.3146058475
  C        19.4655628756        5.7618238508        5.7377178834
  H         5.3807478738        7.8949954800       -0.5642050692
  H         3.7949083161        7.2572015255       -0.7484380310
  C         3.7870493732        9.2382320158        0.3203742643
  S        13.7836775993        1.7125778602       -4.3758988576
  C        13.3616384898       -0.9088920228       -4.9411476396
  H         7.8326459742        8.6055461393       21.3961223806
  H         7.1849536039        9.6139331272       22.6067706230
  H         7.6890130532       10.2920302356       21.0844481250
  H        19.6024542447        4.6860963103        5.5162851863
  H        18.9752280170        6.0665364657        4.8910651091
  H        20.5128118983        6.0738255721        5.7399889798
  H         4.2847494810        9.7147365948        1.2299631925
  H         3.9680915759        9.8566772639       -0.5307555357
  H         2.7467196846        9.2044110277        0.4679978845
  C        14.3672985379        0.8993243298       -5.8376996821
  N        14.0248096032       -0.4132431703       -5.9699872044
  O        13.0047010773       -2.1249861441       -4.8728946436
  S        15.2106228063        1.6962810493       -7.1832354001
  C        14.1997950089       -1.1558983518       -7.2112564673
  H        14.4294794515       -2.2666762633       -6.9935562056
  H        15.1290019875       -0.9101808534       -7.7271641691
  C        12.9576149640       -0.9779808511       -8.0694896317
  H        11.9896824853       -1.3065684695       -7.6594072231
  H        13.1229699823       -1.5521380962       -9.0050095766
  H        12.8468441530        0.0719675889       -8.2446314024
  H        -0.9963229856       13.1146886450       15.4896350391
  C        -1.8436210919       13.8443868823       15.5921087066
  H        -1.6273499579       14.8204528049       15.1321755674
  C        -2.0354852652       14.2923472121       17.0191351310
  C        -3.0412889028       13.0273671911       15.1092362181
  C        -2.2453762314       13.2142147633       18.1003995047
  H        -1.1945775801       14.8978181220       17.2393744004
  H        -2.9047806367       14.9872489983       17.0755720498
  H        -2.9308676402       12.0892802122       15.7007812117
  H        -4.0440408211       13.4780597876       15.2916289438
  H        -2.9366958526       12.6764045333       14.0715072073
  C        -1.4236146051       13.3396248517       19.3601157697
  H        -2.0685545073       12.2339140777       17.6791101634
  H        -3.3245709258       13.2962244230       18.4572741206
  C        -2.2934520360       13.0464417854       20.6357312547
  H        -0.5162279316       12.6631307906       19.4559899823
  H        -0.9909979245       14.3074684178       19.3386173274
  C        -1.4981511081       12.6103608619       21.8143886068
  H        -3.0571601164       12.2477845256       20.5018547770
  H        -2.8376002034       13.9604255802       20.7414171114
  C        -0.4207042683       13.6143906189       22.2278270808
  H        -2.2286368468       12.4510244189       22.5390395551
  H        -1.0774394780       11.6609709748       21.5890455796
  C         0.8163040258       13.0176647566       23.0277076070
  H        -0.0394309918       14.0248572505       21.3690726790
  H        -0.8596539134       14.3603611029       22.9436726944
  C         1.3844151453       11.7845913462       22.2935156133
  C         0.3912398357       12.2423291925       24.2364850483
  C         1.9096287496       14.1254574794       23.2471272106
  C         1.1732656431       10.6072689262       23.0413139632
  C         1.9987438365       11.5025863776       21.0980031955
  C         0.5694830474       10.9163231919       24.2448506635
  C         0.0149527136       12.8104403829       25.4561946031
  H         2.0965998993       14.6837579963       22.3052325079
  H         1.4337283472       14.7423473254       23.9473724323
  C         3.2373672541       13.4978299835       23.7467439564
  S         1.5561008746        9.1707834950       22.2754841484
  C         2.0309555523       10.1604368053       20.8701832616
  H         2.1961642474       12.3115623789       20.3870922565
  C         0.2579115537       10.2220584695       25.4146548132
  H         0.1022229755       13.8969744334       25.5794328182
  C        -0.2966109179       12.1455346146       26.5603317331
  H         3.6375482728       12.7562647346       23.0703463171
  H         2.9932167375       12.9159826378       24.6379991154
  C         4.3204441538       14.5651957037       24.0554067161
  C         2.6136104432        9.4579448066       19.6554128590
  C        -0.1495579312       10.8079611222       26.6470757451
  H         0.2889537516        9.1226598591       25.3472070468
  C        -0.5779305923       12.5652016367       27.8571806606
  H         5.2269458666       14.1900902924       24.4533644565
  H         3.9552619109       15.2884840628       24.7402176730
  C         4.8653344405       15.2817307758       22.7861674564
  C         2.5429259887        8.0852205586       19.3573132203
  C         3.0207471043       10.3547748571       18.5215027820
  C        -0.4043461227       10.0940469166       27.9453148622
  C        -0.7462246811       11.4224412251       28.6424389480
  S        -0.7671332038       14.0299449419       28.6892724946
  H         5.3921138688       16.1963963058       23.0775801328
  H         3.9708195339       15.5195001200       22.2034066706
  C         5.7617709402       14.2870718146       21.9657827189
  N         2.2687293279        7.1095264987       20.3290025533
  C         2.6990601925        7.6414367027       18.1147927693
  C         3.2851982015        9.8643897130       17.2234830638
  H         3.1813564687       11.3691314912       18.6953920942
  C         0.8701502261        9.4399035338       28.4999936386
  C        -1.5941779575        9.1450215488       27.8067315849
  C        -1.0450254662       11.7441361709       29.9833507845
  C        -0.9740782007       13.1287603915       30.1640064870
  H         6.7334619299       14.6939118235       21.8167733426
  H         5.7966847761       13.2960865161       22.3847629606
  C         5.0803191042       13.8801918569       20.6363299425
  S         2.2795690426        5.6994324703       19.5363549704
  N         2.4633422734        6.2734993383       18.0598720495
  C         3.1235665202        8.3782527883       17.0255152992
  H         3.5830440966       10.5695574328       16.4745483602
  H         1.5755026083        9.0210192941       27.7982586240
  H         0.4458951463        8.6217707240       29.0271283371
  C         1.7702866703       10.3576898347       29.4276381331
  H        -1.4223047454        8.4800273833       26.9260883077
  H        -1.5589297894        8.6292407800       28.7381596459
  C        -2.9849364229        9.7983511481       27.5110730062
  H        -1.1022301145       10.9666289104       30.7660736882
  C        -1.1528361361       13.8673224557       31.4941875251
  H         4.9936830736       14.7854710035       20.0185471745
  H         4.0752648250       13.4896643903       20.7743172558
  C         5.9496461097       12.8986103675       19.8237346870
  C         3.3276774633        7.7001903202       15.7644609463
  H         1.9035739701       11.3202557058       28.9719542043
  H         1.3306945000       10.5990336351       30.3540273512
  C         3.0292253734        9.6591622574       29.8494570741
  H        -2.9821267465       10.5818197479       26.7176073229
  H        -3.2051169336       10.3780029762       28.3581329037
  C        -4.0977045720        8.7843731191       27.1810454212
  C        -1.1907045806       15.2702427623       31.6789457231
  C        -1.3837034242       13.0754360443       32.7879595872
  H         6.0889568391       12.0627616113       20.4577511862
  H         5.5759711066       12.4806109306       18.9190034945
  C         7.3191323215       13.3432712371       19.4249998209
  H         3.2336009124        6.6548778137       15.7563411353
  C         3.6695979870        8.1054467348       14.4861286841
  H         3.3999326368        9.1964061224       28.9327157012
  H         2.7575025817        8.8894913149       30.5739273590
  C         4.0737446694       10.6263944118       30.2641530969
  H        -3.9384188819        8.3011417940       26.1967985390
  H        -4.0855248290        7.9601603937       27.9455244550
  C        -5.4915641639        9.4289009072       27.0109218537
  N        -0.9607181394       16.2786729389       30.7405871809
  C        -1.4198218218       15.8206917444       32.9376910926
  C        -1.7039822290       13.6681327214       34.0280980731
  H        -1.1602224619       11.9937002918       32.7575503175
  H         8.1658268648       13.2292082021       20.1981667046
  H         7.6235635665       12.7068975352       18.6160770072
  H         7.3515347032       14.3621763598       19.1610129731
  S         4.0567698095        9.7200547605       13.8782599691
  C         3.8320356636        6.9576108398       13.5112153535
  H         4.0390402009       11.4995354512       29.5871712894
  H         3.8646133782       11.1175021518       31.2101661106
  C         5.4685793801        9.9757240407       30.0966941946
  H        -5.5533147690       10.2512352930       27.7897805240
  H        -6.3092949276        8.6695832555       27.3000977594
  C        -5.5556463332        9.9292019260       25.4965629013
  S        -1.2179462562       17.6667717332       31.4207440968
  N        -1.3635935350       17.1961842965       32.9187747120
  C        -1.7981070159       15.1585393919       34.1028209856
  H        -1.8797274651       13.1273435832       34.9609679488
  C         4.2919780782        8.9288760839       12.3135136951
  N         4.3288531938        7.5449924371       12.3986351551
  O         3.7145472181        5.7519275195       13.7574802205
  H         6.2098854003       10.7500537052       30.1694594837
  H         5.6364359924        9.4345268463       29.1576310256
  C         5.6864418104        8.9784806136       31.2341782104
  H        -4.5359165755       10.3519391427       25.1670285130
  H        -5.6282115635        9.0276450704       24.8230890717
  C        -6.7956665671       10.7928666999       25.2413202562
  C        -2.1676890230       15.8947169001       35.2579818983
  S         4.7804679251        9.7055893414       10.7546211430
  C         4.5492066476        6.7354850096       11.2122650255
  H         6.4495349405        9.3505002378       31.9735014294
  H         4.7471586359        8.7376218923       31.7235819761
  C         6.1129389703        7.7302938715       30.6186140435
  H        -6.6324875176       11.1878692386       24.2567458879
  H        -6.9049354700       11.6844528453       25.9543774253
  C        -8.1346344459        9.9980639942       25.2364760882
  H        -1.8993685389       16.9880976300       35.2580647908
  C        -2.7951303257       15.4850520567       36.4342115706
  H         5.2725275926        7.0957889487       10.4574319596
  H         5.0760436059        5.7604674038       11.5513527063
  C         3.3386387304        6.5059511602       10.2796732098
  H         7.0150791765        7.7900793317       30.0658017044
  H         5.3542829560        7.3352658668       30.0360376651
  C         6.2274995331        6.8032533546       31.8267890957
  H        -8.4062411466        9.6729904702       24.2067591072
  H        -7.8627303719        9.0639476849       25.7566668160
  C        -9.2365920193       10.6658794025       25.9864260601
  S        -3.4078169016       13.9346192826       36.8271012239
  C        -2.9111013201       16.4903661373       37.5662295581
  H         3.6120219426        6.0000808722        9.3499294954
  H         2.5529640418        5.9691745752       10.8722916283
  H         2.7132749607        7.3770099655        9.9412802805
  H         7.1214528405        6.1659046290       31.7751520136
  H         5.4146517905        6.1352284838       31.8694633354
  H         6.5061632500        7.2851862308       32.7695199796
  H       -10.2812949270       10.3264850054       25.7599314794
  H        -9.2283400973       11.7642741466       26.0037667511
  H        -9.1695646411       10.3077595438       26.9839912657
  C        -3.7662272416       14.5805011734       38.4207121423
  N        -3.5339276869       15.9015015190       38.6131144329
  O        -2.5725381102       17.6956341720       37.4679064958
  S        -4.5566464007       13.6518976871       39.6986170883
  C        -3.6166160157       16.6598252040       39.8223762451
  H        -3.7029977990       17.7320498090       39.5992916874
  H        -4.6185275125       16.5674593596       40.2853594998
  C        -2.3489989325       16.1735469859       40.6696263158
  H        -2.2421344104       16.5395740274       41.6754630481
  H        -2.3331731897       15.0849758533       40.7282744162
  H        -1.3990747616       16.4109128653       40.0826227612
