352
i=
  H         4.7540998130        1.5607047444       12.3289870545
  C         4.3401878084        2.5090405758       12.6607685157
  H         5.1062308464        3.1373403219       12.7331288253
  C         3.3224560338        2.8576271732       11.5625597908
  C         3.6921414779        2.1956658678       14.0557279388
  C         3.9368621524        3.1448118711       10.1565315350
  H         2.8196943065        3.7829148586       11.8663224485
  H         2.5015405341        2.1007647333       11.4703224883
  H         3.0306148328        1.3209064221       13.9669711571
  H         3.0727664484        3.0344697482       14.4385471442
  H         4.4941900741        1.9350245672       14.8275155202
  C         4.5113237157        1.8703883815        9.4606009759
  H         3.1240159441        3.5662049050        9.6195863678
  H         4.6738669989        3.9616019290       10.2373681224
  C         5.2961148496        2.2772783287        8.1844674706
  H         3.7445338254        1.1758230758        9.1996591846
  H         5.1079679358        1.2788534616       10.1457090390
  C         6.5635886734        3.0046972093        8.3639534555
  H         4.6371578822        2.8440490381        7.5717455174
  H         5.5745007406        1.3738501680        7.6798845045
  C         7.6883898058        2.0858288725        8.8043299507
  H         6.7861232399        3.4607824196        7.4200780090
  H         6.3963308551        3.7456883610        9.1025932211
  C         8.9539146038        2.9143261314        9.1483580857
  H         7.8769962985        1.5358543078        7.8553135926
  H         7.3844463565        1.4196077696        9.7150692717
  C         8.6650801470        4.2420865647        9.8977361674
  C         9.5172492396        3.7029260754        7.9779291045
  C        10.2051886731        2.1680958552        9.8699565321
  C         8.9558117117        5.3972576035        9.1604431489
  C         8.1066564121        4.5925095083       11.1193939572
  C         9.5511306345        5.0553148470        7.9472138054
  C        10.0235508948        3.1424468146        6.8252545393
  H         9.9144065256        1.6781068742       10.7891629499
  H        10.5243958548        1.3643469750        9.3251370477
  C        11.4253035965        2.9932886279       10.2318999226
  S         8.6125578336        6.8564424781        9.9564481906
  C         8.1839755948        5.8269330397       11.3620708113
  H         7.8931790000        3.7692736767       11.8355091823
  C         9.9710736386        5.7727093577        6.8858993703
  H        10.1424329995        2.1012218002        6.8327191592
  C        10.4372349812        3.8508341836        5.7397012875
  H        10.9988283048        3.8847420503       10.6929140562
  H        12.0023596562        3.2214192732        9.3492691960
  C        12.3574454297        2.3631227844       11.3159766585
  C         7.8113435021        6.5312597431       12.6814781556
  C        10.4283481262        5.1980692261        5.6779265988
  H         9.8841186675        6.8113332401        7.0243873137
  C        10.9946751217        3.5459891747        4.4815575917
  H        13.3150591685        2.8387029167       11.2411116307
  H        12.5375407019        1.3355988612       11.1602372865
  C        11.8770030074        2.6513555744       12.7460632070
  C         7.8270726308        7.9504123154       12.9607135852
  C         7.4485453997        5.7079840227       13.8916092165
  C        10.9012358788        5.9461690981        4.4315401015
  C        11.0769175911        4.6753317689        3.6650117246
  S        11.3658878209        2.0589980515        3.6217073255
  H        12.5486123946        3.4613612586       13.0897894202
  H        10.8658103182        2.9724007293       12.8693064138
  C        11.9746700516        1.4562405118       13.6398992033
  N         8.1051030552        8.9349474310       12.0221780573
  C         7.5036396363        8.4738900568       14.1847254873
  C         7.0929929734        6.2200884516       15.1265047993
  H         7.4134850665        4.6672256149       13.6846165532
  C        12.2533821870        6.5940010829        4.5226462540
  C         9.8568314144        6.8513946139        3.6789713760
  C        11.3061144784        4.3462897467        2.2987699599
  C        11.5217470520        2.9734246676        2.1326528419
  H        12.8949887344        0.9549835834       13.5276757157
  H        11.1290312182        0.6816390378       13.5926361367
  C        11.9052585352        1.8940529695       15.1340613632
  S         7.9513977761       10.4108776717       12.6487575780
  N         7.5145601751        9.8963215245       14.1331188022
  C         7.2296746817        7.6732127745       15.3087346267
  H         6.7503456522        5.5439266930       15.8772279783
  H        12.1092760857        7.6111312308        4.8863821478
  H        12.6771342894        6.7676300015        3.4960615744
  C        13.2210120661        5.8056638607        5.4035257310
  H         9.6564287545        7.6317477896        4.3775071358
  H        10.1020839852        7.2709138033        2.6832474416
  C         8.5420388512        6.0816138139        3.3703727982
  H        11.4646921188        5.1036054658        1.5880138467
  C        11.9480359087        2.2525400653        0.8577856743
  H        11.0760043330        2.6241848827       15.2885313559
  H        11.6450869679        1.0725591767       15.7203007386
  C        13.0871290960        2.4588284004       15.7938252166
  C         7.0880898826        8.3663734260       16.5402744255
  H        12.8936441608        5.7469051824        6.4850064294
  H        13.2523703289        4.7764373529        5.0201153559
  C        14.6825450649        6.2815351415        5.1751491899
  H         7.9753632840        5.8398383824        4.3245204815
  H         8.7265233190        5.1536435728        2.8197271629
  C         7.6137975680        6.9454346465        2.5585584503
  C        12.1724187428        0.8879989983        0.6837411909
  C        12.2777488641        3.0433113979       -0.3792167071
  H        13.6818885291        3.1401105927       15.1611524901
  H        13.7488548902        1.6203046807       16.0005569970
  C        12.8500091272        2.9842373728       17.2682646185
  H         7.2088658190        9.4347328158       16.5447164344
  C         6.6994613822        8.0425849646       17.7742987125
  H        14.7227018723        7.3225898479        5.0596787414
  H        15.0318997024        5.9416170879        4.2510770481
  C        15.6848373966        5.7904760905        6.2353065584
  H         7.3630250978        7.6392142330        3.3612626198
  H         8.0756082393        7.4944331754        1.7725719776
  C         6.3650252892        6.2051502750        1.9940865181
  N        12.0071421195        0.0406109529        1.7323084723
  C        12.6175093854        0.2947377169       -0.4642942457
  C        12.6168114264        2.4343523753       -1.5897898232
  H        12.2426597687        4.1430853820       -0.2229535295
  H        12.7211019731        4.1047818037       17.2140225780
  H        13.6824711603        2.7851287426       17.9061119751
  H        11.9633806300        2.6157298389       17.7490400983
  S         6.3304407712        6.4935879413       18.4398624348
  C         6.5802896362        9.1960683944       18.6864655005
  H        15.5661616046        6.3708341030        7.2500987337
  H        15.4222677079        4.7413649763        6.4958569912
  C        17.1683064515        5.9377931253        5.7836192295
  H         6.2996598324        5.2693004282        2.5693966682
  H         6.5473149499        5.8699923339        0.9177208223
  C         5.1228040536        7.0815806153        1.9925643335
  S        12.4055323133       -1.4074370352        1.2638906356
  N        12.8344462049       -1.0962414820       -0.2834836622
  C        12.7792070296        0.9301525087       -1.6550693502
  H        12.7379868525        3.1001580314       -2.4824504677
  C         6.1455563256        7.3421603407       19.9347580897
  N         6.2132667649        8.7036644763       19.9224612937
  O         6.5793260562       10.3577444308       18.4365804838
  H        17.4200632844        5.4846736661        4.8624563715
  H        17.4117177196        7.0507879772        5.8047163993
  C        18.0475348575        5.2787355204        6.8807181149
  H         4.2306460391        6.4660567522        1.8818740476
  H         4.9147828179        7.6406790561        2.9418222439
  C         5.1789007705        8.0776703205        0.8158256587
  C        13.0056663431        0.0662687335       -2.7644755935
  S         5.7851571722        6.3686974318       21.3476551983
  C         6.0455330581        9.4749282374       21.1569651719
  H        17.4392085267        4.8933827057        7.6852198806
  H        18.4893837702        4.5060336158        6.3156134276
  C        19.2698551923        6.1373630622        7.2739875998
  H         4.9702387696        7.4096779867       -0.0487383863
  H         6.2174685335        8.5069852950        0.6744390124
  C         4.0529520660        9.1333459652        0.7144320790
  H        12.7276676142       -0.9543624958       -2.6592048171
  C        13.5587306982        0.3006756549       -3.9702546233
  H         5.2267770412        9.0288203641       21.7876094765
  H         5.6888766748       10.5063232501       21.0335455464
  C         7.3357068453        9.6121446400       21.8582486394
  H        19.8672244229        5.5849186625        8.0163729456
  H        19.0692440023        7.1144360005        7.8200109025
  C        20.1256543496        6.4030520068        5.9926894438
  H         3.9935925435        9.3575512255       -0.3938916682
  H         3.1574121847        8.5689621428        1.0976982431
  C         4.3979467253       10.3584588859        1.4783385581
  S        14.1732998384        1.8548616655       -4.4650175521
  C        13.6557778533       -0.8467650762       -4.9158155595
  H         7.4009014600       10.4236705206       22.5976959206
  H         8.1506870467        9.8175938640       21.1663941801
  H         7.6048002285        8.8339365434       22.6076299208
  H        21.1187439652        6.8542445681        6.2103318781
  H        20.3957816661        5.4775389644        5.4997415790
  H        19.6804269450        7.0025817029        5.1917218790
  H         5.1425252698       11.0586848230        1.0549168216
  H         3.4411956823       10.8351966260        1.7739551745
  H         4.7800371512        9.9717943983        2.4597933608
  C        14.7210082503        0.9034491777       -5.8772475259
  N        14.4525055421       -0.4211728567       -5.8819926567
  O        13.0804484250       -1.9602928264       -4.7508414144
  S        15.5789523882        1.6106015610       -7.2911489610
  C        14.6188278448       -1.1876668217       -7.1018391462
  H        14.8050055282       -2.2293564782       -6.7694372453
  H        15.4763385910       -0.9718747498       -7.7466990137
  C        13.4076894484       -1.0153500272       -7.9901309442
  H        12.4711899522       -1.3210778728       -7.4532129524
  H        13.5034709363       -1.7374722064       -8.7875449145
  H        13.2386404434       -0.0398536698       -8.4766263348
  H        -3.3968685145       15.0950914108       16.3786818056
  C        -3.1788496905       14.0178898119       16.4026077439
  H        -4.1542844024       13.6031299565       16.5220533930
  C        -2.3556593102       13.7027980550       17.5813365807
  C        -2.3334349630       13.4323727405       15.1725631194
  C        -3.1638155463       13.5988174966       18.8450256981
  H        -1.6453528369       12.8311060068       17.3987355467
  H        -1.6812876127       14.5301274419       17.7215485346
  H        -1.8353346539       12.4611537749       15.3399496359
  H        -3.0427468535       13.3199239452       14.3595914615
  H        -1.6529760563       14.1768411407       14.6126209750
  C        -2.1485024283       13.2559678140       19.9939805929
  H        -3.9078032509       12.7957387987       18.8947498772
  H        -3.7935594175       14.4420722236       19.1361289391
  C        -2.7156250187       13.3369103193       21.4459101630
  H        -1.6636424231       12.3808863357       19.8275763227
  H        -1.3280338161       14.0158674199       19.9439669810
  C        -1.6156666763       12.8332683380       22.3860938695
  H        -3.5307309592       12.6044200288       21.5571833330
  H        -3.0819998274       14.3250491373       21.7882956325
  C        -0.3857455444       13.7446794909       22.6559634121
  H        -2.1862772949       12.5957510242       23.2893937863
  H        -1.3000159061       11.8354611332       21.9838351782
  C         0.8123224942       13.0371578392       23.2608809284
  H        -0.0261958161       14.1261014007       21.7077274496
  H        -0.7102977732       14.6441589731       23.1190702401
  C         1.1618626931       11.6866554895       22.5254442342
  C         0.5746591707       12.3030646258       24.5064300998
  C         2.0763629210       13.9274090194       23.3230935813
  C         1.2511347025       10.6371945195       23.4462753294
  C         1.4973722653       11.3164401997       21.2079223550
  C         0.7987954086       10.9669576096       24.7093875483
  C         0.1283644241       12.9191029150       25.7055310388
  H         2.2337754575       14.2105674355       22.2470982210
  H         1.8304179852       14.8750174842       23.7913570793
  C         3.2982052793       13.2809388106       24.0051578045
  S         1.7543738685        9.1485323400       22.7124112213
  C         1.8987164996        9.9971626998       21.2055573887
  H         1.5345118485       12.0383658004       20.4340149795
  C         0.4438460211       10.3325033653       25.8453062926
  H        -0.0453875773       14.0130020034       25.6301935261
  C        -0.1292250752       12.3032005627       26.8910502343
  H         3.6439680814       12.3319609608       23.5622436023
  H         3.0536647181       13.1285619802       25.1168456762
  C         4.5257187589       14.2138628430       23.9355532087
  C         2.4619859835        9.3751223177       19.9469017699
  C        -0.0411165333       10.9548825327       26.9957115010
  H         0.7247707768        9.3367020614       25.9702644151
  C        -0.3783436118       12.6950398583       28.2438746406
  H         5.2763986706       13.7544720486       24.4684548893
  H         4.4269678210       15.1584857172       24.4771627386
  C         4.8596563008       14.5254532263       22.4487163336
  C         2.5494507437        7.9596860893       19.7438213771
  C         3.1001647793       10.2466989213       18.9305035600
  C        -0.3232333680       10.2589853891       28.3108757989
  C        -0.5658086575       11.5491009561       29.0190579847
  S        -0.5598709611       14.1555998097       29.1204643814
  H         4.5135384384       15.5247318521       22.2314399258
  H         4.3888426914       13.9257283306       21.7359307492
  C         6.3567562446       14.5941518263       22.2038210708
  N         2.0494930839        7.0003394937       20.6931193696
  C         2.8447698515        7.4177271213       18.4816512309
  C         3.4197808640        9.6366936446       17.6922161488
  H         3.3674109893       11.2873022024       19.0245097472
  C         0.8745863891        9.4262008589       28.8982398643
  C        -1.6120972340        9.4545715951       28.2289919424
  C        -0.6919001560       11.9207980490       30.3668633520
  C        -0.8249231213       13.2438778211       30.5799848922
  H         6.4303653826       15.3284884226       21.4603942249
  H         6.8703655989       14.9499296042       23.1589668219
  C         6.8593751916       13.2951758091       21.5795131543
  S         2.2453108929        5.5606282896       19.9873951075
  N         2.7096595622        6.0316527586       18.5527038990
  C         3.2497979694        8.1995132723       17.4380673035
  H         3.7533735006       10.2915328436       16.8569154626
  H         1.1647389739        8.6346134915       28.2071837478
  H         0.6424584910        8.9802599861       29.8396676948
  C         2.0405263243       10.3307128579       29.1371224962
  H        -1.4677160720        8.6493833848       27.4799773239
  H        -1.8348580269        9.0269184548       29.1976844234
  C        -2.7741873825       10.2288424675       27.7323698085
  H        -0.8353217829       11.1462646637       31.1002021960
  C        -1.1655359345       13.9572929676       31.8209449030
  H         6.0464598880       12.5671840013       21.5197599517
  H         7.6377382650       12.7710309608       22.2247522511
  C         7.4833629142       13.4720806101       20.2062716547
  C         3.4398214395        7.5116717933       16.2180388719
  H         2.4233597187       10.9024026286       28.2795793961
  H         1.8789621574       11.1148764623       29.9309021473
  C         3.2654715111        9.5775063022       29.7788803192
  H        -2.5642452767       10.5607212255       26.7292349600
  H        -2.9142670149       11.0760995068       28.3967962529
  C        -4.0757002571        9.3925972803       27.5643749463
  C        -1.3029719904       15.3483328198       31.9959519281
  C        -1.2581859004       13.1889040964       33.0680104541
  H         8.3338956010       14.1296073729       20.1143763784
  H         7.9343913239       12.5076219948       19.9182188167
  C         6.3728274756       13.8789148978       19.3123942219
  H         3.4644418730        6.4686547117       16.3199257319
  C         3.7234622192        7.9754095794       14.9306697471
  H         3.8537358791        9.0359360161       29.0166653912
  H         2.9782841417        8.7925114525       30.4416454007
  C         4.2704246488       10.4530381557       30.5959368620
  H        -4.0206399269        8.4968974732       26.8128624746
  H        -4.2775078326        8.9261059327       28.5015574739
  C        -5.3011905497       10.1415331669       27.0985286203
  N        -1.1742302054       16.2898129483       30.9802436260
  C        -1.5067469721       16.0212415168       33.1963180421
  C        -1.5806177192       13.7982979688       34.2547132084
  H        -0.9772755066       12.0934105034       33.1231778424
  H         5.5819316440       13.1088838110       19.3316069090
  H         5.9350410802       14.8297422328       19.4633649214
  H         6.6725115278       13.8199972592       18.2776982069
  S         4.0303698283        9.5589018173       14.4730481660
  C         3.8106470124        6.8917466736       13.8600496809
  H         4.6483695604       11.3178230412       30.0029373457
  H         3.7930401178       10.8147455671       31.5691549903
  C         5.5599919582        9.7386958338       30.7488196610
  H        -5.3861460883       11.0265078123       27.7344301065
  H        -6.2126135783        9.4766460164       27.1535046921
  C        -5.2289333440       10.5848884601       25.6309994252
  S        -1.2822066349       17.8159507417       31.5490040075
  N        -1.6994395345       17.3418790152       33.0752082456
  C        -1.7814483141       15.3178988572       34.3901671098
  H        -1.6872112681       13.2187396420       35.1037395624
  C         4.2091712235        8.8892803166       12.8674101842
  N         4.2127155523        7.5669807770       12.7468123246
  O         3.6959704610        5.6731870025       14.0345411210
  H         6.2038575651       10.4139875118       31.3182679823
  H         6.2207609302        9.5615254915       29.8041085942
  C         5.4496442569        8.3988007473       31.4844438304
  H        -4.3767649597       11.2695878002       25.6823544116
  H        -4.9463671704        9.8704908720       24.8328446105
  C        -6.5439969459       11.3564371282       25.3130496217
  C        -2.1679253333       16.0180548681       35.5560165600
  S         4.8386427540        9.7678490557       11.5342003427
  C         4.2648912334        6.8318641047       11.4777080273
  H         6.2308623972        8.3739280118       32.2823243314
  H         4.4864976590        8.3754956209       32.0447896991
  C         5.8154698673        7.1273826867       30.6537592572
  H        -6.3735616825       12.0124546532       24.5223984192
  H        -6.6408463846       12.0083443889       26.2199477549
  C        -7.7567367830       10.4939517571       25.0568157661
  H        -1.6078177048       16.8591242033       35.7701833922
  C        -2.7026177407       15.5015252877       36.6936478850
  H         5.1151198136        7.3054270352       10.9701759331
  H         4.4662091941        5.8331095824       11.7368566908
  C         2.9527309027        6.9022685677       10.6367197107
  H         5.2003368566        7.1768851921       29.7826233141
  H         5.5597333505        6.2375940862       31.2657249722
  C         7.3033657697        6.9435216347       30.3194748134
  H        -8.3632526338       10.8368142939       24.2310575598
  H        -7.3779665291        9.4839715977       24.8490022267
  C        -8.7370869776       10.2112566154       26.2020611725
  S        -3.3996316425       13.9331878041       36.9243314884
  C        -2.8873806443       16.4710407331       37.8258261155
  H         3.0946217018        6.4775137841        9.6622586674
  H         2.0421437402        6.3629837573       10.9116980096
  H         2.7637343208        7.9046467615       10.4262642648
  H         7.4263699257        5.9479593126       29.9914064531
  H         7.9022092740        7.1738333100       31.1854698601
  H         7.6624083418        7.5797150686       29.5170603152
  H        -9.7688248934       10.4601790133       25.9428100366
  H        -8.5151243146       10.6418684463       27.1189578477
  H        -8.7684597259        9.1341472556       26.3268095267
  C        -3.5465340186       14.4522672005       38.5810327704
  N        -3.4431086088       15.8220728773       38.8380512560
  O        -2.6440928267       17.6608940602       37.8132282088
  S        -4.2443809261       13.5102817356       39.9307061148
  C        -3.6130765344       16.5431626400       40.0967420660
  H        -3.8006760741       17.6186373158       39.8600488711
  H        -4.4521992661       16.1537034159       40.6459824591
  C        -2.3090210953       16.5461403172       40.9566838536
  H        -1.3832786635       16.5500927708       40.3497646955
  H        -2.3156198961       17.4092999289       41.6240754216
  H        -2.3172193052       15.6511110323       41.6392651039
