352
i=
  H         3.5701574699        0.9185975878       14.0353693567
  C         4.2267086061        1.7435381546       13.6175517007
  H         5.1667362077        1.3121425334       13.2553818376
  C         3.6066418132        2.4996081898       12.4187836423
  C         4.6189856349        2.7051543624       14.6791290505
  C         4.4907166626        2.7254104530       11.1851483663
  H         3.2138845617        3.5254394502       12.6805607731
  H         2.7004698225        2.0589755273       11.9415374920
  H         3.9575754559        3.0373681392       15.4778330192
  H         4.8571006164        3.6575058319       14.2398132748
  H         5.3905195668        2.3428028038       15.4019751397
  C         4.8814246723        1.4165762488       10.4999206676
  H         4.0364478918        3.4563552897       10.5088727091
  H         5.3529389044        3.2342582490       11.4550363459
  C         5.3782182255        1.6082373972        9.0495643849
  H         3.9876191968        0.7582704366       10.5298738106
  H         5.5513356248        0.8913296926       11.1426485331
  C         6.6555383794        2.4738344901        8.9124067624
  H         4.5958563981        2.0385840896        8.4077040879
  H         5.5375008354        0.6194565341        8.6065459758
  C         7.8909763652        1.8401225472        9.4911281709
  H         6.8118927517        2.7030140894        7.8381640965
  H         6.4997901964        3.4084658783        9.3973638490
  C         9.1984083504        2.6837912702        9.4775590140
  H         7.9974774545        0.8878916117        8.9156049770
  H         7.7104636990        1.4184897896       10.4924462483
  C         8.8092578254        4.0686082053       10.1742931105
  C         9.5050583336        3.3362482220        8.2104777977
  C        10.4044215477        1.9596377111       10.0954062108
  C         8.9691809386        5.1345139115        9.3549856292
  C         8.3959928125        4.4918996371       11.4305010769
  C         9.3904186690        4.7139330478        8.0931342187
  C        10.0016441300        2.6425812153        7.0691579273
  H        10.1756629869        1.1566936081       10.8569560679
  H        10.9118431922        1.4932975874        9.3003492994
  C        11.4115193160        2.9338152779       10.7568758050
  S         8.4005649845        6.6889506346        9.9944639642
  C         8.1383559632        5.8607258623       11.5090327971
  H         8.2608465829        3.7411978705       12.2389027185
  C         9.7420375163        5.2246408102        6.8538293291
  H        10.0803675991        1.6453623890        7.2485348935
  C        10.4239556655        3.1877777995        5.9139964065
  H        10.9687638542        3.6367321215       11.5473811997
  H        11.8673156143        3.5365678683        9.9949954792
  C        12.6061224626        2.2372710443       11.3749613943
  C         7.7180443187        6.5239658304       12.7935771806
  C        10.2456818049        4.5374360424        5.7693406781
  H         9.6850333315        6.2872862137        6.6644067342
  C        10.9363594837        2.7937100672        4.6889134535
  H        13.4963778721        2.1961099699       10.7449835872
  H        12.3827080731        1.2420030406       11.6807270702
  C        13.0519461746        2.8788942133       12.6842468418
  C         7.6962651282        7.9202637879       13.0393418134
  C         7.1818201432        5.7587454354       13.9656982039
  C        10.6860478476        5.2327584686        4.5378763662
  C        11.1023273879        3.9050166257        3.8617846827
  S        11.1118518786        1.3165050392        3.9239067900
  H        13.7024274183        3.6502353574       12.4038387511
  H        12.3191695207        3.4861599304       13.1711373826
  C        13.6043108767        1.9094470459       13.7074881689
  N         8.0419459429        8.8551559274       12.1005835325
  C         7.2464725360        8.5119631351       14.2197383636
  C         6.8341875714        6.3203888133       15.1132200882
  H         7.0593577947        4.6549001726       13.9693328650
  C        11.8892386113        6.2408535412        4.7411827896
  C         9.4901232606        5.8914787017        3.7542157365
  C        11.4891022974        3.5321032479        2.5524851099
  C        11.5496225904        2.1767792059        2.3949118662
  H        14.2427175589        2.5763410206       14.3544072361
  H        14.3130423943        1.1882532265       13.2138353721
  C        12.6422660146        1.1384629022       14.5753149833
  S         7.9571359739       10.2783609462       12.7975130129
  N         7.2513843584        9.8891416894       14.2100225056
  C         7.0198729922        7.7341838467       15.3695848424
  H         6.5542132126        5.6259298718       15.8701193453
  H        11.6653021390        7.1833763823        5.2930856669
  H        12.1715043429        6.6089799782        3.7748786758
  C        13.0305469129        5.5455458136        5.4665447148
  H         9.2416083834        6.8140208555        4.3461374878
  H         9.6332268313        6.2291891908        2.6982410810
  C         8.2167337478        4.9557516150        3.6924539651
  H        11.5848293400        4.3155044047        1.8870796782
  C        11.8986533750        1.5455362813        1.1238173026
  H        11.7005933262        0.8581669514       14.0616530332
  H        13.0962864524        0.2501438086       15.0350993876
  C        12.0756192851        2.0644537683       15.6610814445
  C         6.6296167304        8.3811241771       16.5869355542
  H        12.7023236102        5.3576169049        6.5443530810
  H        13.1910382632        4.5468134637        5.1325286672
  C        14.4635278692        6.0921508097        5.4422526540
  H         7.7944415367        4.8312404909        4.6044340994
  H         8.5243560319        3.9333191039        3.4570085325
  C         7.2164146900        5.3857507589        2.6181042938
  C        11.8929620698        0.1634759880        0.9485750497
  C        12.2199266672        2.3804014087       -0.0664563607
  H        11.1861573422        2.4173968221       15.2589420763
  H        12.6731480603        2.9211810892       15.7361912508
  C        11.8672723988        1.4656215898       17.0616315323
  H         6.5166631371        9.4189452024       16.4819285123
  C         6.3937301473        7.9202808735       17.8970223794
  H        14.5088180125        7.1384340977        5.8386918982
  H        14.7002993874        6.2076572944        4.3783945559
  C        15.5314511791        5.2317884306        6.1652169317
  H         7.6714221146        5.9543598289        1.8298089443
  H         6.8123706232        4.4262462483        2.1207073937
  C         5.9892414022        6.0793654906        3.1846412385
  N        11.6110272467       -0.7330810745        1.9777386028
  C        12.1286026062       -0.4411818812       -0.2456552703
  C        12.5219662701        1.7634414994       -1.2949652588
  H        12.2935624668        3.4195068718        0.0218152183
  H        11.7193839105        2.1181164150       17.7543558262
  H        12.8284425842        0.8827033044       17.1895780517
  H        10.9914782376        0.8121597952       17.0287041481
  S         6.2494309350        6.3121877891       18.5056080105
  C         6.1369460901        9.0037934634       18.9192792972
  H        15.2952857796        5.1459799499        7.1974631578
  H        15.6467188238        4.2644237989        5.6318008904
  C        16.9914141084        5.7927516409        5.9834698719
  H         6.3187007096        6.8175534433        3.8139930337
  H         5.3726267099        5.4033423768        3.8019163752
  C         5.1628420198        6.7646629428        2.0853617252
  S        11.6770275883       -2.2276035191        1.3769850956
  N        11.9978837770       -1.8092490964       -0.1379799978
  C        12.4388673813        0.2594134156       -1.4207240290
  H        12.7837489156        2.4062659219       -2.0399511501
  C         5.6987703701        7.0778875795       20.0359253177
  N         5.7924880902        8.4304135555       20.0612906644
  O         6.4243936986       10.2064150001       18.6883331001
  H        17.3497007386        5.7679388000        4.9548480780
  H        17.0450318033        6.8485406895        6.3002558095
  C        17.9028459005        5.0159673229        6.9478303074
  H         5.7763291346        7.3062300905        1.3462288047
  H         4.6520105430        6.0076210602        1.4129047918
  C         4.0721247620        7.6313877335        2.7291903959
  C        12.7528361424       -0.4933358473       -2.6088457786
  S         5.3862006740        6.2349749991       21.5797573458
  C         6.0580478637        9.0921535361       21.3234116443
  H        17.4105164600        4.8731244637        7.9175702993
  H        18.2258925053        4.0320721676        6.5364417772
  C        19.2490292238        5.6555565860        7.2062569139
  H         4.1373768451        7.4595747100        3.8168242488
  H         3.0928789783        7.1113649825        2.5136791629
  C         4.0311825268        9.0906388204        2.3653111630
  H        12.4203449181       -1.5893415165       -2.5783731959
  C        13.2987980235       -0.1548888545       -3.8168089525
  H         5.5175693796        8.6734650906       22.1760556034
  H         5.6759802252       10.1290911752       21.3488534305
  C         7.5676083292        9.1173324056       21.5431059584
  H        19.8561698217        4.9357768655        7.8491297748
  H        19.2642379204        6.5558453937        7.8412929222
  C        20.1012723908        5.9996434371        5.9875458767
  H         3.2583618173        9.5852124007        2.8700408141
  H         5.0297954041        9.4502137323        2.7715636885
  C         3.9221863377        9.4391292440        0.8454328161
  S        13.8571773798        1.4073480575       -4.2768496274
  C        13.5746687737       -1.2512957268       -4.8263120466
  H         8.0871381828        8.1763677536       21.6530254116
  H         7.8191207155        9.5776022007       22.4634238521
  H         8.0928103366        9.7535470109       20.8130651160
  H        20.3453450260        5.1862322258        5.4161626817
  H        19.6266562911        6.7733445556        5.4646118473
  H        21.1459767244        6.4147363542        6.1990232322
  H         4.1486283880       10.4283094705        0.5379319339
  H         4.5416061275        8.8157736298        0.1670254967
  H         2.9266777359        9.1362781209        0.4627272797
  C        14.5002635651        0.6488226128       -5.7391165325
  N        14.2029735043       -0.6869333128       -5.8761349811
  O        13.2046415054       -2.3796830648       -4.7063572469
  S        15.2334429167        1.4309995107       -7.1691195797
  C        14.3530193401       -1.4331086081       -7.1224935090
  H        14.4512268987       -2.4196615211       -6.7347731456
  H        15.3084575928       -1.1392623063       -7.6642049207
  C        13.0019646574       -1.3471604760       -8.0136381669
  H        12.1843236946       -1.4353026221       -7.3129879699
  H        12.7849285864       -2.2342238740       -8.5676122075
  H        12.9266419533       -0.4508192225       -8.5873976395
  H        -2.9508344717       15.0459659771       16.4620283202
  C        -2.8937496754       13.9411123299       16.5566949380
  H        -3.9326068300       13.7007527277       16.6210329168
  C        -1.9834716957       13.6054239940       17.7353966297
  C        -2.3822100455       13.3856890957       15.2173183396
  C        -2.4513178642       13.9136414548       19.1765085287
  H        -1.7666158624       12.5332406470       17.7509327002
  H        -1.0906009698       14.1099801229       17.5449780650
  H        -3.2383653312       13.1852838041       14.5318878555
  H        -1.7957474510       14.1799353802       14.7139985490
  H        -1.8790892484       12.4894099005       15.4622358355
  C        -1.9242807395       12.9173658380       20.1676237943
  H        -3.5734682864       13.9971882582       19.2466016521
  H        -1.8394427443       14.8581750277       19.3385563629
  C        -2.4087232080       13.2739570811       21.5650636244
  H        -2.2216408191       11.8871898220       20.0026832455
  H        -0.8538402455       12.9975723346       20.0790160695
  C        -1.3930839906       12.6661168738       22.5587176553
  H        -3.3964388340       12.8920711948       21.7062420887
  H        -2.4537700945       14.2805852571       21.6758799792
  C        -0.3114705865       13.6830196990       22.9418926904
  H        -1.8736861706       12.3277595015       23.4730058851
  H        -0.9402520480       11.8047601503       22.0042926230
  C         0.9494696801       13.0370181896       23.6621699988
  H         0.0147837074       14.1218769571       22.0037002446
  H        -0.8110647588       14.4306187113       23.5557077972
  C         1.3125701767       11.7122222155       22.9401675852
  C         0.5337540673       12.3557250159       24.9516995981
  C         2.2257083221       13.8536533767       23.8679394379
  C         1.1005593910       10.6452013825       23.7456721360
  C         1.8226453939       11.3379944870       21.6771225320
  C         0.6538234403       10.9916845349       25.0230215031
  C         0.1108758358       12.9005358720       26.1324611299
  H         2.2555309923       14.4971920882       22.9832727128
  H         2.0299884682       14.5697762289       24.6719389113
  C         3.5548816720       13.1459552786       24.0368094140
  S         1.5826124683        9.1056092994       22.9892407517
  C         1.9948533540        9.9792043729       21.6093815628
  H         2.0530077118       12.0525182703       20.9089470549
  C         0.4019891665       10.2577854476       26.1877141192
  H         0.1099973683       13.9715406771       26.2233317548
  C        -0.1878471272       12.2532038722       27.2506804099
  H         3.7084564352       12.3862557837       23.3617669392
  H         3.5605455765       12.7388252227       25.0810464299
  C         4.6104333134       14.2174480975       24.1430293743
  C         2.4140982808        9.2629532827       20.3919150933
  C        -0.0983703412       10.8930712966       27.3687828845
  H         0.5070126165        9.2874685073       26.2547176873
  C        -0.5463971751       12.5796998770       28.5635427253
  H         5.4660914032       13.8386977204       24.6858170810
  H         4.3088681776       15.0520030812       24.7812225734
  C         5.0701176324       14.5913912950       22.7223437406
  C         2.2861612763        7.8362983197       20.0808593228
  C         2.8482971246       10.0334169510       19.1824918852
  C        -0.5335778877       10.1589990767       28.6224238825
  C        -0.6626838960       11.5112237395       29.3424180535
  S        -0.9000625102       14.0488240690       29.3778397419
  H         5.6789989018       15.5104550964       22.8281333336
  H         4.2051395760       14.8851259262       22.0920826477
  C         5.9627250304       13.5764083217       22.1587367589
  N         1.9833488394        6.8511523507       21.0415241484
  C         2.6084675016        7.2695316942       18.8969352700
  C         3.0954216355        9.4738567886       17.9887378745
  H         2.9616524192       11.0689807681       19.2141371697
  C         0.5630305559        9.2574821458       29.1797216636
  C        -1.7929340381        9.4399032481       28.4559298004
  C        -1.2608769662       11.8712705761       30.5843743059
  C        -1.2879051201       13.2221365311       30.7817476927
  H         6.9313016477       13.9210515346       22.4705868073
  H         5.7760547324       12.5716112116       22.5694541029
  C         5.7265092365       13.5244228142       20.6548534005
  S         1.8780246752        5.3725333902       20.3227980835
  N         2.3826295948        5.9286299071       18.8450998448
  C         3.0256536575        8.0148613769       17.7524726701
  H         3.6814007770       10.1213552998       17.3625458037
  H         0.9536461355        8.6018468829       28.4169903184
  H         0.1366104021        8.4633781406       29.8548534943
  C         1.7731781546       10.1077499333       29.6325473774
  H        -1.6034302266        8.5728610618       27.8125806951
  H        -2.1313871316        9.0600227019       29.4471154957
  C        -2.9298504714       10.2266737864       27.9654507799
  H        -1.6050845985       11.1287201421       31.3030349043
  C        -1.6913052602       13.9350052363       32.0479060183
  H         5.3616568745       14.5140490814       20.3710500658
  H         4.9529867539       12.8148657671       20.5627048558
  C         6.9240491430       13.0991625863       19.8788202328
  C         3.3595874653        7.2785544117       16.5607967686
  H         2.2630827232       10.5496832802       28.8200069572
  H         1.3570633042       10.8544602069       30.3146537807
  C         2.8152842850        9.2605235539       30.3091747357
  H        -2.6840210956       10.7117038475       27.0411160820
  H        -3.1279454564       11.0320028861       28.7075441779
  C        -4.2112183015        9.4061405197       27.7287508865
  C        -1.7795999162       15.3764626529       32.2145140463
  C        -1.8859153260       13.1909704325       33.2558099460
  H         7.7964313525       13.8096477950       19.9650527404
  H         7.1840282337       12.2073215896       20.3241322374
  C         6.6736703130       13.0207491773       18.4173974704
  H         3.3419034751        6.1741604533       16.6619030394
  C         3.7108306228        7.7689239242       15.3004462894
  H         3.1398969652        8.4221863059       29.7239133795
  H         2.3743465111        8.8516090122       31.2165190377
  C         3.9366164671       10.0927397787       30.9210140376
  H        -4.0105399136        8.5700896229       27.1236990979
  H        -4.4660035029        9.0024023150       28.7201403148
  C        -5.4599839005       10.2388847241       27.2822308336
  N        -1.4759636666       16.3892593849       31.2589613033
  C        -2.1193804604       16.0520618903       33.4020085744
  C        -2.2021049830       13.8397555000       34.4378077033
  H        -1.7693215466       12.1244321735       33.3492492046
  H         6.7025841970       14.1341782131       18.1103661903
  H         7.4817076954       12.5611847894       17.8043875804
  H         5.7247835089       12.6081215554       18.1056403572
  S         4.1030500292        9.4268205878       14.8785638589
  C         3.6650567229        6.7670644000       14.1980641209
  H         4.1035875960       11.0266360287       30.3300669079
  H         3.7353133026       10.4731733070       31.9396867779
  C         5.1143834198        9.0881761157       30.9623176225
  H        -5.1175188766       11.1503794159       26.7765276874
  H        -5.9005803597       10.5697665537       28.2764268719
  C        -6.3793455071        9.4558570906       26.3565371754
  S        -1.6335913651       17.8499900062       31.8477148198
  N        -2.1523462238       17.4108527691       33.3083634933
  C        -2.3935344786       15.3016313954       34.5607261189
  H        -2.3312417176       13.1779504774       35.2903177625
  C         4.2199973278        8.7656825348       13.2216999001
  N         4.0702987081        7.4308000091       13.0853403969
  O         3.2940753383        5.5782785336       14.3226085961
  H         5.9244105212        9.7066617161       31.2693903956
  H         5.4159981026        8.7118772585       29.9784793000
  C         5.0629247389        7.9086252348       31.8894483403
  H        -5.7237502522        8.8830236447       25.6848777832
  H        -7.0233125808        8.8377553244       26.9592829998
  C        -7.2274929061       10.5012305240       25.5252302579
  C        -2.6179331827       16.0449117017       35.7509512477
  S         4.6078561738        9.7683226982       11.8491371090
  C         4.0400482851        6.8432004142       11.7950291953
  H         5.8776897279        7.9888800782       32.5960741858
  H         4.1958475793        7.7937179693       32.5532146447
  C         5.2042443120        6.5822578926       31.1745028320
  H        -6.6794144286       10.6877068202       24.6393706220
  H        -7.4376346971       11.3238744544       26.1351959888
  C        -8.5409510492        9.8641860794       25.0136400926
  H        -2.2881104419       17.0629038557       35.6954104708
  C        -3.1271914159       15.6334868504       36.9342625636
  H         4.7348124452        7.3074166575       11.1321677027
  H         4.2077115049        5.8075500828       11.8622946275
  C         2.6974636274        6.7897516556       11.1695192220
  H         4.7455350459        6.5919025216       30.1695478824
  H         4.6897430734        5.7585271673       31.6788358418
  C         6.6587878321        6.1629030193       30.9452924864
  H        -8.7983545065       10.4014602449       24.1085647550
  H        -8.5332662408        8.8369937793       24.8463566351
  C        -9.5648789013       10.0584924842       26.1128261973
  S        -3.7319344855       14.0463771112       37.3028583551
  C        -3.1125345818       16.5816257844       38.0358220261
  H         2.0144717369        6.2879546030       11.8689203057
  H         2.3026926348        7.7875408901       11.0291855733
  H         2.7515792393        6.1515448399       10.2618555584
  H         6.9678032176        5.5248555992       31.8155574151
  H         7.1345999918        7.1398334093       30.8185748486
  H         6.8564519659        5.6106146955       30.0144364991
  H        -9.6088346215       11.1651229295       26.2910919624
  H        -9.3777514306        9.7858424140       27.1820342546
  H       -10.5936264474        9.8889453053       25.8965744665
  C        -3.9945540603       14.6793572994       38.8876468026
  N        -3.7043907377       16.0055692509       39.0615380777
  O        -2.6776094837       17.7463723235       37.9250602013
  S        -4.7326429486       13.7556454283       40.2554539783
  C        -3.8250804247       16.8533581939       40.2659448533
  H        -4.1344552009       17.8716648735       40.0145525494
  H        -4.6375784179       16.4048267926       40.8496953506
  C        -2.6203946763       17.0992971325       41.1111480142
  H        -2.6103908009       18.0275207195       41.6589196808
  H        -2.6569926088       16.3308956810       41.8150684814
  H        -1.6714029051       17.0580277425       40.5165194946
