352
i=
  H         4.6433040603        1.3063279151       12.5636517535
  C         4.0857568405        2.1855581679       12.5907910313
  H         4.7792351938        3.0080309300       12.6637536663
  C         3.2288316782        2.1683166615       11.3302647690
  C         3.3719758206        1.9627888896       13.9494118627
  C         3.9781400443        2.6341069644       10.0880339895
  H         2.4662622428        2.8748163453       11.6510638005
  H         2.8413522458        1.1842434527       11.1272269095
  H         2.4727566582        1.3151898204       13.9188686551
  H         2.8496983081        2.8929041702       14.1371726117
  H         3.9614734279        1.7524949898       14.8505002930
  C         4.7551301240        1.4677036787        9.4391150802
  H         3.2845098927        3.0745673647        9.3804125925
  H         4.7725765398        3.3698799768       10.3083192488
  C         5.5495020831        1.9659842460        8.1878755634
  H         4.0848407016        0.7440142767        9.0708847460
  H         5.3152534378        0.9477941820       10.2000418016
  C         6.8084178368        2.8095752794        8.4223508286
  H         4.8304495322        2.4014647890        7.4714861090
  H         5.9768395501        1.1384666484        7.5908417546
  C         7.9790768446        2.0154234226        8.9312215602
  H         7.0288582530        3.3111520877        7.4245705151
  H         6.4898460307        3.5471744148        9.1417542115
  C         9.2662660545        2.8264341922        9.1105050203
  H         8.2550528704        1.0894233834        8.3735023883
  H         7.7518156212        1.5746055880        9.9407198657
  C         8.8816918151        4.1537040906        9.7528447251
  C         9.6647413694        3.5363700632        7.7718586055
  C        10.3903439195        2.0361898391        9.8789631620
  C         9.0813599927        5.2701610442        8.9274650384
  C         8.3538822305        4.4637319208       10.9855351675
  C         9.5958379615        4.9038979566        7.6553525613
  C        10.1314873175        2.8867062222        6.6101372659
  H         9.8125823829        1.7981262151       10.8406707690
  H        10.7244113489        1.1404814835        9.3760436599
  C        11.6581566828        2.8741346610       10.0753527876
  S         8.5915380396        6.6870212148        9.7311837110
  C         8.1301666931        5.8291090691       11.1397720321
  H         8.2833664656        3.6883358840       11.7749566047
  C         9.9734095467        5.5868710339        6.5168629253
  H        10.2764082407        1.7800396768        6.6136276154
  C        10.5189939682        3.6128846721        5.4848615961
  H        11.4011798133        3.8515689447       10.4875134501
  H        12.1055892933        3.0395348581        9.1103548808
  C        12.6758727249        2.2729122853       11.0799144401
  C         7.6699290009        6.4713478396       12.4277066363
  C        10.4969758129        4.9599684860        5.3956397480
  H         9.9460825145        6.6385032226        6.4812475825
  C        10.9882976596        3.2207419759        4.2714818751
  H        13.4891430769        2.9848916914       11.1488809757
  H        13.1285239963        1.4733110428       10.5129680453
  C        12.1495621186        1.8660098496       12.4226669856
  C         7.6046423279        7.8397962202       12.7177136240
  C         7.1569600114        5.5630527044       13.4630810516
  C        10.9600185240        5.5886295103        4.0614489718
  C        11.0980484402        4.2355855658        3.3365732552
  S        11.3145588951        1.7109832933        3.6314366478
  H        11.4126743050        2.5529075867       12.7372182968
  H        11.6136641520        0.9068013107       12.4226921159
  C        13.2983900341        1.7661710675       13.4074583273
  N         7.9143687198        8.8183856738       11.8075440046
  C         7.2939012472        8.3688032805       13.9084906840
  C         6.8472952060        6.0732639083       14.7009703235
  H         7.0342809636        4.5108849301       13.3030009922
  C        12.2956440732        6.3726443464        4.2628113432
  C         9.7296472348        6.3691090275        3.5204629458
  C        11.5466428962        3.7319815353        2.0682491923
  C        11.5769053221        2.3701149610        2.0528383247
  H        13.7760358451        2.7941754034       13.5891085908
  H        14.0911499532        1.2724799235       12.7990498134
  C        12.9219277517        1.0622494182       14.7243184190
  S         7.8627943714       10.3076267659       12.5341936867
  N         7.3793959004        9.7311440913       14.0095257013
  C         7.0481446593        7.5314319147       15.0306987525
  H         6.5480568942        5.4054106705       15.4739864089
  H        12.0159095170        7.2712168482        4.8620582739
  H        12.6314568566        6.6659046317        3.2652770603
  C        13.4740725896        5.5286335616        4.9261439224
  H         9.3639574550        7.1425625130        4.1785015589
  H        10.1336330021        6.8891827736        2.6116873391
  C         8.6540884909        5.4151921664        2.9173499248
  H        11.7487432169        4.3472633495        1.1927629703
  C        11.8485889636        1.6043147196        0.7814922864
  H        11.9482991307        0.6843947639       14.6260487090
  H        13.7181457851        0.2697530512       14.8255428663
  C        12.8708352615        1.9984544447       15.9189484527
  C         6.9732453713        8.1376054124       16.2975339063
  H        13.2239560543        5.0541743409        5.8505945780
  H        13.6788632114        4.5953607356        4.3969315737
  C        14.7857354774        6.3252954586        5.0051678818
  H         8.2755978381        4.8020141977        3.7611174181
  H         9.0118067072        4.8551728721        2.1036112131
  C         7.5493948046        6.2362342884        2.2551490618
  C        12.0115408942        0.2120031453        0.7064676434
  C        11.8519666283        2.3198199288       -0.5516076837
  H        12.3037314820        2.9112962627       15.7951961944
  H        13.9137977386        2.3384878281       16.0283863911
  C        12.2408588338        1.2738288442       17.1390994586
  H         7.2240568577        9.1780111405       16.2196285766
  C         6.7077852154        7.7752637252       17.5840560117
  H        14.3779594844        7.1162668375        5.6693328204
  H        14.9304527417        6.7229869172        4.0433130199
  C        15.9308493962        5.5703919410        5.7189285568
  H         7.2721855921        7.1486726074        2.8922885354
  H         8.0189976542        6.6860305376        1.4187434806
  C         6.2959495192        5.4386725694        1.9590814639
  N        11.8294409771       -0.7391169535        1.7258223296
  C        12.3245327718       -0.5014908268       -0.4581417787
  C        12.0610928257        1.6124244314       -1.7235023082
  H        11.5867108467        3.4003149187       -0.6163149474
  H        11.1919134392        0.9153882505       17.0090673201
  H        12.4562299611        1.9576131904       18.0436900816
  H        12.8553712517        0.3311432321       17.2948328161
  S         6.2706958113        6.2359537080       18.2776300424
  C         6.7127641518        8.8999608137       18.5830589669
  H        15.5172821064        4.8236020189        6.3906154858
  H        16.5487891063        5.1109038254        4.9746838681
  C        16.8336806248        6.4617972145        6.4798214378
  H         5.8861215843        5.0801960082        2.8934504196
  H         6.5589490663        4.4798797239        1.4390116233
  C         5.2447330970        6.1795441937        1.1426286900
  S        12.1290716328       -2.2351022991        1.1967621295
  N        12.5152571426       -1.8862909412       -0.3800920179
  C        12.4140180693        0.1423944054       -1.6942854542
  H        12.0755737817        2.1193863593       -2.6863459771
  C         6.1270022315        7.1031348761       19.8392553369
  N         6.3500218870        8.4436669961       19.7978746552
  O         7.0158935464       10.0895734530       18.2885457828
  H        17.2865566641        7.0976481784        5.7658826916
  H        16.1901770859        6.9114168418        7.1867624310
  C        17.8352823856        5.6750749758        7.2591816020
  H         5.5994124607        6.6636231513        0.2231659090
  H         4.5006585290        5.5216239949        0.7297136448
  C         4.4811092287        7.1892957656        1.9557853492
  C        12.6920482930       -0.5824358873       -2.9078402579
  S         5.7522228973        6.3284625874       21.2639062164
  C         6.2452131417        9.2394967247       20.9135480517
  H        17.5068904241        5.3782670727        8.2645845059
  H        17.9484685276        4.7103124808        6.7653638409
  C        19.2000248970        6.3229700368        7.2770408386
  H         4.8683065180        7.1841473105        2.9482857392
  H         3.5651930191        6.6473210582        2.1184337385
  C         4.1823551249        8.6161222388        1.3964666248
  H        12.4627708245       -1.5883083967       -2.8708299786
  C        13.3431952590       -0.1779498538       -4.0437191944
  H         5.5457601229        8.9649584873       21.7906138236
  H         5.8229070990       10.2174139562       20.5383889134
  C         7.6124403431        9.3863303371       21.5694539198
  H        19.5614011101        6.0823583625        8.2647319122
  H        19.2160827600        7.4240948187        7.2919266104
  C        20.1291472609        5.9825696270        6.1823641310
  H         5.1085497427        9.2183310398        1.2909138454
  H         3.8266029765        8.5473814720        0.3725617468
  C         3.1337771653        9.4183075105        2.1046502331
  S        13.7794206214        1.4336313606       -4.4458718847
  C        13.5037478800       -1.1523199594       -5.1129360582
  H         8.3232395976        9.5007202734       20.7762876671
  H         7.7965127675        8.5232313442       22.1555252658
  H         7.6803866452       10.3104977475       22.2179901737
  H        20.8296570103        5.0699446574        6.4265167456
  H        19.5781249302        5.5098491135        5.3271109705
  H        20.6087578056        6.8649615776        5.6742321998
  H         3.0068734276       10.4158135621        1.7099858423
  H         2.1937420259        8.9618054099        2.0475923340
  H         3.5235729308        9.4732512200        3.1685461720
  C        14.2001354356        0.7720657320       -6.0737878947
  N        14.1878595368       -0.5681128006       -6.0913502782
  O        13.2835462720       -2.3728772803       -5.0295146871
  S        14.9184364551        1.7496654060       -7.4026798275
  C        14.5986559756       -1.3512964570       -7.3007746449
  H        14.9699092385       -2.3317154744       -6.9826424597
  H        15.5589263931       -0.9542976278       -7.7924088567
  C        13.3489476369       -1.5179002878       -8.1766046313
  H        13.1930844623       -0.7387853307       -8.8878860630
  H        12.4755423535       -1.7086801313       -7.6042483783
  H        13.4923438478       -2.4481766299       -8.7528955626
  H        -3.6217538486       14.8796639409       16.5158310074
  C        -3.2929825867       13.8850382488       16.6023118949
  H        -4.1561135808       13.2540383035       16.7831939175
  C        -2.1989962998       13.7087728810       17.7114215623
  C        -2.6942729857       13.5227918830       15.2521076481
  C        -2.5432619348       14.1704654646       19.1205525739
  H        -1.7413312289       12.6972291661       17.6729999045
  H        -1.3479161044       14.3372084097       17.4646418816
  H        -2.2177847576       12.5558600573       15.3328140912
  H        -3.5278900803       13.4005584076       14.4731535988
  H        -1.9853225406       14.1805568433       14.7646274214
  C        -2.2859377193       12.9287709586       20.0984708306
  H        -3.5768037205       14.5233263154       19.2063672575
  H        -2.0278907634       15.0721695306       19.2831591840
  C        -2.2476098371       13.4114018859       21.5940454306
  H        -3.0626129135       12.1830748840       19.9127539222
  H        -1.3581475854       12.5659828903       19.7283267842
  C        -1.2478907407       12.7111566536       22.5432036266
  H        -3.1972793590       13.2805611793       22.1275833080
  H        -2.0673387557       14.4606368883       21.6426499268
  C        -0.1023786739       13.6346681459       22.9485868963
  H        -1.7279368725       12.3877398093       23.4570908320
  H        -0.7929256791       11.7981213246       22.0386106585
  C         1.2102645651       13.0138594364       23.4904000141
  H         0.1480721831       14.2783842768       22.0690000370
  H        -0.4109379220       14.3994564958       23.6268271512
  C         1.5183225157       11.6611173003       22.7941106159
  C         0.8586547262       12.3410180985       24.7747079473
  C         2.4028129413       13.9742811549       23.4206816916
  C         1.3450249516       10.6546160871       23.6888083877
  C         2.0270437291       11.2043838205       21.5535810338
  C         0.8575149406       11.0310798233       24.9375879886
  C         0.5219745385       12.9969972287       25.9886643549
  H         2.3913932520       14.2261080622       22.3429591385
  H         2.2553413653       14.8463115589       24.0378869775
  C         3.6282177461       13.3077911859       23.8646916627
  S         1.5217122950        9.0548659170       22.9087204408
  C         2.0333725028        9.8059812675       21.4462939911
  H         2.2483545900       11.9578214453       20.7432051590
  C         0.5031585800       10.4429023571       26.1048835726
  H         0.5129991237       14.0474166348       25.9958116813
  C         0.2155241818       12.4597299646       27.1800432367
  H         3.9492436537       12.5447951193       23.1018209460
  H         3.4944409551       12.7409238941       24.7519896864
  C         4.8204383369       14.2601523733       24.0583029021
  C         2.6203841448        9.0866873145       20.2987401965
  C         0.1465342258       11.1024284101       27.2901343438
  H         0.4339540414        9.3462468473       26.1853606164
  C        -0.3890274911       12.8772591564       28.3665408670
  H         5.6066048429       13.7099177690       24.5904509085
  H         4.4021454061       14.9766884608       24.7260146107
  C         5.3203184073       14.8859009619       22.7141272348
  C         2.5325823010        7.6704744848       20.1218759110
  C         3.0749304194        9.9292770236       19.1327740721
  C        -0.4064596202       10.4568959561       28.5588559885
  C        -0.6852796029       11.8402627323       29.1644202212
  S        -0.8556341967       14.4435655179       29.0317959381
  H         5.5823753366       15.9280524147       22.8604322266
  H         4.5601088817       14.9045854756       21.8746385384
  C         6.6368992578       14.1803311531       22.2471906650
  N         2.1196052966        6.6948222848       21.0315870360
  C         2.8768037125        7.0512134587       18.8996193669
  C         3.3670433043        9.2962475048       17.9047516164
  H         3.1590656125       10.9856979696       19.2330388806
  C         0.7569925221        9.7285841047       29.1964797280
  C        -1.7046886450        9.6499543444       28.2796565736
  C        -1.1958355369       12.2381061567       30.4310165411
  C        -1.2016149811       13.6113256334       30.5008129917
  H         7.2314769055       14.9059157841       21.6773282470
  H         7.1874020543       13.9627818210       23.1153763900
  C         6.3861346400       12.9301160850       21.2993712267
  S         2.3684043182        5.2034813082       20.4055690228
  N         2.8251461742        5.6907217345       18.9481075522
  C         3.3079014784        7.7953681147       17.7764098956
  H         3.7855274649        9.8249367521       17.1160697868
  H         1.0598687709        8.8791987463       28.6098689747
  H         0.4022321796        9.1057587858       29.9916472764
  C         1.9767616464       10.5358079691       29.5907151154
  H        -1.3643298850        8.9869762035       27.4709147158
  H        -1.9510169137        9.0804553122       29.1179599669
  C        -2.9350598929       10.4017899258       27.7481577480
  H        -1.2762796919       11.5260609801       31.2122059014
  C        -1.5755142792       14.4247176373       31.6913227193
  H         5.7976335310       12.1983817473       21.8916441811
  H         7.2912272492       12.3499886996       21.1085486773
  C         5.7480215312       13.3794338981       19.9711754988
  C         3.5009851435        7.0782376450       16.5701421824
  H         2.4629608941       10.9985349644       28.7781328784
  H         1.7361946015       11.2292398049       30.3984445655
  C         3.1041355407        9.5806144545       30.0756514059
  H        -2.6890711534       10.8538249214       26.8100515205
  H        -3.3225983289       11.1653852876       28.4353905461
  C        -4.0446922035        9.4425632526       27.4269625200
  C        -1.4614661690       15.8449341619       31.7851233045
  C        -1.9433245021       13.6879880159       32.8762249666
  H         5.2619377499       12.5524374408       19.4995710276
  H         5.0377511588       14.1636849535       20.1172822180
  C         6.8510239870       13.8188163495       19.0254400236
  H         3.2660753219        5.9766337568       16.6084569703
  C         3.7221367463        7.4056379518       15.2554436412
  H         3.1918386753        8.7853659539       29.4443474156
  H         2.8466766790        9.2148544586       31.0464228990
  C         4.4202036830       10.3154260251       30.4953548162
  H        -3.7093813946        8.6893812724       26.7205608212
  H        -4.3404070684        8.9442923907       28.3439064295
  C        -5.1661624957       10.2449190360       26.7788374659
  N        -1.0104413187       16.7531775679       30.8015520752
  C        -1.8008060552       16.4777093069       32.9439010798
  C        -2.0785156182       14.3614703140       34.0854951234
  H        -2.0759106578       12.6536017044       32.7795592615
  H         7.4853833370       12.9187718589       19.0656540792
  H         6.5213963094       14.0317788522       17.9792442109
  H         7.5277977663       14.5424205354       19.4935834301
  S         3.9668501219        9.0174282141       14.7420596120
  C         3.6803237673        6.4009509319       14.1925386376
  H         4.6414480204       11.1958015796       29.9419565441
  H         4.3012311740       10.6505773398       31.5386584859
  C         5.6447149346        9.4080807734       30.3345068574
  H        -4.7010097775       10.9919594510       26.1048982700
  H        -5.4434651604       10.9365350612       27.5601669406
  C        -6.3109979947        9.5923343183       26.1381117921
  S        -1.4029777579       18.2882724821       31.2725550674
  N        -1.6777243975       17.8808841516       32.8027742886
  C        -2.0763216550       15.8028556422       34.1326379293
  H        -2.3534133971       13.8539835991       34.9970763778
  C         3.9496957959        8.4140414480       13.1055290445
  N         3.9242922320        7.0438707196       13.0315592751
  O         3.5874612315        5.1726965361       14.3449926290
  H         6.5275421345       10.0642159733       30.4681318870
  H         5.7096925608        9.0525081785       29.3428963627
  C         5.8618461820        8.2577128696       31.4041089056
  H        -6.0814754625        8.8472705097       25.3819996175
  H        -7.0415626463        9.2383577496       26.9427984909
  C        -7.1871869879       10.6845364081       25.4450095319
  C        -2.3827520332       16.5841311696       35.2843044279
  S         3.9198396838        9.3190818047       11.5700888474
  C         3.9225287227        6.3342588923       11.7145003730
  H         6.8550040568        8.4221993999       31.8172010042
  H         5.2995270819        8.3373724843       32.2763381186
  C         5.4272037876        6.8252197281       30.9236462411
  H        -6.5038218321       11.2305977265       24.8939051178
  H        -7.5527840374       11.4332883201       26.1319811134
  C        -8.3624490389       10.1937642083       24.6783003218
  H        -2.2681524485       17.6297535000       35.1755146992
  C        -2.9142751724       16.3141881783       36.5478744006
  H         4.5594145979        6.8585125519       10.9816530631
  H         4.5233580965        5.3963829674       11.8134317365
  C         2.4782432223        5.9761022751       11.2017708686
  H         4.4405865948        6.8185440337       30.5437315413
  H         5.5297508850        6.1662406355       31.8045353607
  C         6.5229600127        6.2268100222       30.0268426257
  H        -8.4467108706       10.7680424739       23.7682938387
  H        -8.2172251426        9.1759269354       24.3912199778
  C        -9.6901246334       10.1972271772       25.4610382055
  S        -3.2714346168       14.7144830856       37.1621064015
  C        -3.0607753746       17.3968236566       37.4717316238
  H         2.4919768961        5.4734829186       10.2616794112
  H         2.0031774561        5.3295708528       11.9410481382
  H         1.8733716054        6.7956471401       11.0565333055
  H         7.2982823791        6.8966004908       29.7142661854
  H         6.0195509696        5.8262731379       29.1001035898
  H         7.0557583607        5.4764033332       30.5929847649
  H        -9.7480370934        9.5358366321       26.3268559725
  H       -10.5128104604        9.8410171614       24.8506937319
  H        -9.8634107596       11.2381185755       25.7868425667
  C        -3.5389717876       15.5371885893       38.6856202251
  N        -3.4807366098       16.9094520891       38.6047620439
  O        -2.7721068095       18.5478219273       37.2557971428
  S        -4.0799079603       14.7728141059       40.1905614562
  C        -3.4931075770       17.8256702250       39.7315308867
  H        -3.7429433639       18.8351665587       39.4918866354
  H        -4.2292916519       17.4907819490       40.4935475935
  C        -2.0919270371       17.8177720024       40.3968705714
  H        -2.1951964800       17.3770400532       41.3904578099
  H        -1.4058567557       17.3717235188       39.7402321278
  H        -1.8130751492       18.8421974532       40.6364058017
