352
i=
  H         3.1509771372        1.8683409182       13.9353819819
  C         3.6671109485        1.6620889101       13.0318610070
  H         3.6517536588        0.5881332313       12.8633808322
  C         2.9095883796        2.3267400082       11.8450057597
  C         4.9809669128        2.3285268093       13.3994504005
  C         3.7381169884        2.5546584972       10.6203612725
  H         2.4084078990        3.2631553444       12.2970329934
  H         2.0649143726        1.6730827283       11.5376263274
  H         5.2670812175        2.2471434353       14.4615161927
  H         4.8736435300        3.3921994689       13.1578914645
  H         5.7899769516        1.8180408604       12.9288213066
  C         4.3689948627        1.3132582937        9.9818564722
  H         3.0336466686        3.0577261646        9.8376707828
  H         4.5393506113        3.2290576466       10.8453685052
  C         5.2122610716        1.4022278301        8.7523729679
  H         3.5925124372        0.5177155680        9.8718332036
  H         4.9883060025        0.9911019597       10.7772468267
  C         6.5166484777        2.1504838714        8.8928670525
  H         4.6359420697        1.8643311811        7.9949290526
  H         5.4442716801        0.4517127845        8.3139616341
  C         7.7427839978        1.4025547224        9.4442214339
  H         6.8710749107        2.5536256046        7.8920290068
  H         6.2902626355        3.0365389722        9.4251348138
  C         8.9075790428        2.3496165818        9.5638688473
  H         8.1434167331        0.6565951287        8.7608316757
  H         7.5487168152        1.0125712970       10.4571636069
  C         8.5541546268        3.6004141651       10.3073153615
  C         9.2886448205        3.1066960705        8.3420582194
  C        10.1773363420        1.7201643185       10.1413233456
  C         8.7395061419        4.7519548134        9.5103654248
  C         8.0073417309        3.9491106827       11.5576917016
  C         9.2460806425        4.4062876698        8.2651387720
  C         9.8152565222        2.5343490148        7.1563198969
  H         9.9690957852        1.1288595686       11.0588618432
  H        10.5837755132        1.0642401061        9.3727799919
  C        11.2687338829        2.6945025630       10.5580539416
  S         8.2732379272        6.1852678351       10.3201778890
  C         7.9314132050        5.3138677309       11.7117638306
  H         7.7315294752        3.1939173801       12.2461965785
  C         9.7644862081        5.1464549265        7.2118334923
  H         9.7888261176        1.5115632818        7.0041574181
  C        10.2092630554        3.2180035514        6.0287881998
  H        10.7294728412        3.3976600906       11.2727132917
  H        11.6640818406        3.2915664291        9.6994705457
  C        12.4448191567        2.0017443250       11.2987567845
  C         7.4199633711        5.9290155858       12.9901345879
  C        10.2519206084        4.5658985567        6.0198543641
  H         9.8828701977        6.1915758924        7.2978514634
  C        10.5893753459        2.7795186650        4.7734254269
  H        13.3715988170        2.2175382031       10.7378942810
  H        12.1646342713        0.9431397137       11.1791451134
  C        12.5816573420        2.3519637627       12.7544964504
  C         7.5206715182        7.3197924517       13.2548984454
  C         6.8859165496        5.1083191659       14.1676387455
  C        10.7265341722        5.2162720490        4.8167112809
  C        10.9039708831        3.8494353912        4.0019699714
  S        10.7523516825        1.2249342094        3.9535694549
  H        13.0534611962        3.3513088031       12.8891059877
  H        11.6117575934        2.3227507105       13.3378433127
  C        13.6086454753        1.4728973104       13.4690402740
  N         7.9635045869        8.2799684903       12.4037500087
  C         7.2801247134        7.8856822055       14.5015222492
  C         6.7203756619        5.6762241072       15.4259890755
  H         6.8879868972        4.0280464242       14.0967045831
  C        12.0094066532        5.9616953247        5.0188117418
  C         9.6505872083        6.0614142466        4.1948303994
  C        11.4107540433        3.4836712531        2.8027934375
  C        11.3045168640        2.0946466444        2.5574110977
  H        14.5188540074        2.0030252263       13.5918450999
  H        13.8492561447        0.5831144817       12.8864965728
  C        13.1327929207        0.9291884791       14.8605689182
  S         7.9111473098        9.7321166682       13.1026568409
  N         7.3266541364        9.2299824423       14.4960107324
  C         6.9822715671        7.1621422949       15.6371000680
  H         6.3160830886        4.9488313202       16.1399804639
  H        11.8740837803        6.7677692977        5.8005099170
  H        12.2924655238        6.3971713048        4.0954410791
  C        13.1441160108        5.0458488880        5.5135743879
  H         9.2500428236        6.8819597319        4.9173933751
  H        10.0709813911        6.6489994078        3.3866023162
  C         8.4286533025        5.2752830790        3.6875359978
  H        11.8389368469        4.2030894609        2.1526933760
  C        11.6115339481        1.3284826179        1.2822476748
  H        12.1957838785        0.3700194379       14.9555388215
  H        13.8561271829        0.1286785754       15.1646429330
  C        13.1888162843        2.0177016116       15.9254402379
  C         6.8096789210        7.8830174001       16.8480567794
  H        12.8211732305        4.5773053959        6.5042554654
  H        13.2894841825        4.2543056075        4.7838566098
  C        14.4356410991        5.8373535452        5.6635573124
  H         7.8514084441        4.9371012991        4.5181942536
  H         8.5713956052        4.3609721680        3.1912671508
  C         7.5424387414        6.1719726775        2.8235729182
  C        11.6419213219       -0.0678101501        1.0899801863
  C        11.9199433500        2.0430770226        0.0682431069
  H        12.5447813736        2.8094860701       15.5886505878
  H        14.1184385414        2.5438175602       15.8808120280
  C        12.7897298674        1.6475485466       17.3768501420
  H         7.0532830416        8.9451886531       16.8312792471
  C         6.4045563813        7.4821003762       18.0671938283
  H        14.2025814873        6.8370241381        6.0424678801
  H        14.8574948320        6.0118360057        4.6656481116
  C        15.3399496366        5.1208231334        6.6237518025
  H         7.6003637340        7.2744285159        2.9945253287
  H         7.7971327359        6.1092284171        1.7380867724
  C         6.1018954219        5.8413063972        2.9960995403
  N        11.4895445877       -1.0444553227        2.1269046986
  C        11.9648595068       -0.6891650269       -0.1396981110
  C        12.1211859522        1.4374005547       -1.1488384958
  H        11.8681929843        3.1194577098       -0.0253095608
  H        12.2023519456        2.4582901480       17.7002297523
  H        13.7126486861        1.6844633808       17.9759957573
  H        12.3113527165        0.6013140692       17.5638267872
  S         5.9199149773        5.9417983974       18.5945308316
  C         6.4577336818        8.5156420285       19.1863375279
  H        14.9413731212        5.1104125308        7.6256113714
  H        15.6201256764        4.0404749772        6.3173247044
  C        16.6558973890        5.9251951950        6.8336563310
  H         5.7717054231        6.3479691100        3.8670478282
  H         5.9641733502        4.7380992607        3.1439580520
  C         5.2404379261        6.4183334762        1.9220274864
  S        11.4467817410       -2.4791535602        1.4318038260
  N        12.0738096408       -2.0261938973       -0.0590081750
  C        12.2126438996       -0.0306904054       -1.3349752340
  H        12.1352307863        2.0557738528       -2.0186373890
  C         5.7050744377        6.6299188938       20.1972636482
  N         5.9112336304        7.9184144864       20.2568428593
  O         6.8089924191        9.6811378436       19.0691529521
  H        17.1100866684        6.0733424700        5.8187187540
  H        16.3278029261        6.8419974225        7.3833988270
  C        17.5729190126        5.1670499823        7.7803764538
  H         5.7462598629        7.2491753324        1.3909644952
  H         5.0424297903        5.6548618020        1.1976438227
  C         3.9080555806        7.1052580558        2.3673080734
  C        12.4462287465       -0.7603160662       -2.5042011379
  S         5.2880907909        5.6873749801       21.6109600219
  C         5.7813881512        8.6333382437       21.5202093901
  H        17.0813168115        4.8488266299        8.6346871619
  H        17.8368413195        4.1414972156        7.4108620707
  C        18.8697630049        5.8507244809        8.0826602234
  H         3.2976575535        6.4459612316        2.9933503555
  H         3.4029820903        7.2608947579        1.4147938351
  C         4.1708357057        8.5074992780        2.9968060808
  H        12.0880816527       -1.8033410873       -2.5058528011
  C        12.8749585986       -0.3549135087       -3.7928328062
  H         5.0162660596        8.4136116416       22.2072024463
  H         5.4212989589        9.6708400061       21.3385997877
  C         7.1405294457        8.5645619039       22.1996689504
  H        19.3715535755        5.4993222927        8.9735834428
  H        18.5209772169        6.8699438700        8.2574795909
  C        19.7344044077        5.8449519783        6.7935623203
  H         3.7481344427        8.5823947050        3.9545171365
  H         5.2291879751        8.6320266176        3.1726588747
  C         3.7432301446        9.6368290155        2.1348337427
  S        13.4148392750        1.1859413817       -4.2694265168
  C        13.0053862128       -1.4849682749       -4.8325447898
  H         7.0022110378        8.6261388535       23.2606731121
  H         7.7186265056        9.4078040376       21.8775038551
  H         7.7799422924        7.6726019381       21.9810156603
  H        19.3632029177        5.1336477853        6.0737724014
  H        19.7385481449        6.7609368429        6.2290635263
  H        20.7992265429        5.6141171220        6.9884005271
  H         4.6891810545       10.1388670380        1.9159601735
  H         3.2949590339        9.3251621516        1.2410374089
  H         3.0856140123       10.4109228889        2.6452422684
  C        13.8321831885        0.4010914019       -5.8029150322
  N        13.7111435383       -0.9707316809       -5.8639905652
  O        12.7001588391       -2.6584281833       -4.6392149028
  S        14.4249808425        1.3467174524       -7.1866052818
  C        14.1635344284       -1.9047528878       -6.9275357920
  H        14.3947176521       -2.9166065812       -6.5609608926
  H        15.1168486069       -1.5174528799       -7.3804690314
  C        13.0480046178       -2.0200332475       -7.9887277652
  H        12.1769779384       -1.4972555939       -7.6980264385
  H        12.6862775314       -2.9846591536       -8.1170922821
  H        13.3997975299       -1.6913126365       -8.9079105491
  H        -3.8349055866       12.1622706657       17.0103987709
  C        -2.8827718432       12.6960163324       17.0451295916
  H        -2.1683191113       11.8988948737       17.2933497990
  C        -3.0382703745       13.6121924141       18.1929574987
  C        -2.5898943276       13.3351390815       15.7355423579
  C        -3.3501101473       12.8929146724       19.5267166989
  H        -2.1868926676       14.2151475656       18.4586014743
  H        -3.8862865725       14.2491113414       18.0530185433
  H        -2.2839416944       12.4913934494       15.1005548067
  H        -3.4357562858       13.8565741087       15.2912148503
  H        -1.8283611164       14.0454494457       15.7490521587
  C        -2.0363615833       12.6069059567       20.3908406501
  H        -3.9825409580       11.9656802285       19.3741938059
  H        -3.9374116177       13.5344104136       20.1818770660
  C        -2.4524045358       12.6984805543       21.8672845537
  H        -1.5977916284       11.6914810264       20.1361959233
  H        -1.2910242640       13.3626881016       20.2551457921
  C        -1.2766137028       12.2248574899       22.7633181097
  H        -3.2312636685       11.9834092705       22.0448833378
  H        -2.7483017977       13.6842193513       22.0562905841
  C        -0.0909758097       13.2667497953       22.8972638480
  H        -1.7360634992       12.0967415085       23.7220721759
  H        -0.8526287025       11.3012853027       22.3652888784
  C         1.0167102866       12.6920380083       23.6767880178
  H         0.3409681592       13.5154421453       21.9323136509
  H        -0.2983940567       14.2180385647       23.3921055746
  C         1.5022147783       11.3574094804       23.0175167874
  C         0.6124177702       11.9523802472       24.9647850271
  C         2.1964360888       13.5992606496       23.8814535309
  C         1.3303857065       10.2705729462       23.8104154341
  C         1.8728689355       11.0188366894       21.6928420229
  C         0.7913119539       10.6077565616       25.0964281635
  C         0.1666406049       12.5820121236       26.0759312369
  H         2.2099747095       14.3759848607       23.0975666733
  H         1.9768711919       14.1892548101       24.7519458919
  C         3.5492939631       13.0730967186       24.2101369663
  S         1.6675128382        8.7805408049       23.0282376663
  C         2.0267678027        9.6467437892       21.5559591287
  H         1.9871237721       11.8470722751       20.9889445658
  C         0.3987423025        9.9796379009       26.2870813167
  H         0.0446727764       13.6525373382       26.0175910216
  C        -0.1346438802       11.9132516801       27.2659976813
  H         3.8345106503       12.3380196870       23.5122471247
  H         3.5444831748       12.5355955928       25.1603343798
  C         4.6683860741       14.0694739822       24.4501027205
  C         2.3685265202        8.9279006617       20.2860490335
  C        -0.0470198021       10.5723296242       27.3971255678
  H         0.5263462600        8.8881628133       26.2591949102
  C        -0.5259146596       12.3065598486       28.4703070175
  H         5.3702064613       13.5638913008       25.0622094739
  H         4.2794448323       14.8559206750       25.0594051680
  C         5.4241298666       14.6854537660       23.2237754942
  C         2.3296064756        7.5271574486       20.0001991233
  C         2.8047400231        9.8084751216       19.1711438574
  C        -0.3742642927        9.8742718193       28.6715609776
  C        -0.6523960671       11.2151933874       29.3179737838
  S        -0.8684228293       13.8115241304       29.1791831085
  H         6.0874131234       15.4137008361       23.6937556486
  H         4.6828039591       15.0606429951       22.5334596907
  C         6.2505466607       13.6485626295       22.3794861073
  N         2.0364521076        6.6075757456       20.9767446614
  C         2.6093657719        6.9969949169       18.7783059856
  C         3.0889407706        9.2901769239       17.9054007038
  H         2.8791235879       10.9507801294       19.3555784868
  C         0.8338055274        9.0736723496       29.1813495484
  C        -1.6742211735        9.0463600778       28.5228125201
  C        -0.9397128640       11.7066255146       30.6456161193
  C        -1.1226411304       13.0784979155       30.7485263982
  H         7.2951332907       13.9062490992       22.3906522979
  H         6.0791396494       12.7369881842       22.8791669903
  C         5.6823622062       13.5653946262       20.9639864669
  S         1.9748595434        5.1397138913       20.2779034917
  N         2.3228971524        5.6444415917       18.7868830323
  C         2.9545760359        7.8528575558       17.7049480156
  H         3.5340881951        9.9769911132       17.2150268116
  H         1.2200782556        8.3352720579       28.4859199542
  H         0.4348790934        8.4461276938       29.9909223883
  C         2.0104785906        9.8811749410       29.6865973601
  H        -1.6208712496        8.0894270315       27.9436773080
  H        -2.0431767930        8.7342017486       29.5200357611
  C        -2.7511639590        9.8180020766       27.7925658499
  H        -0.9666750770       11.0487944029       31.4895675170
  C        -1.6613123445       13.8168615644       31.9763196635
  H         5.6960214063       14.5906962286       20.5634213858
  H         4.6307858969       13.1562352242       21.0000669246
  C         6.5310743602       12.7030715387       19.9541428630
  C         3.1143612697        7.1608172925       16.4553562556
  H         2.4050173578       10.6256060044       29.0609084409
  H         1.6725321423       10.5237824084       30.4946588060
  C         3.2791303240        9.1028137690       30.2825284290
  H        -2.5595291956       10.1536130290       26.8053931532
  H        -2.9423418260       10.7342702947       28.3823810436
  C        -4.1432632317        9.1173132703       27.7743567584
  C        -1.6814548924       15.2285369554       32.0477237211
  C        -1.6622731202       13.1033810557       33.3355322927
  H         7.5687617389       13.1346495503       19.8214543095
  H         6.8335496710       11.7445388372       20.4003575825
  C         5.8363559553       12.4271196512       18.6434663689
  H         3.0283663918        6.1285580558       16.5748663055
  C         3.4534432045        7.5774272436       15.2041490772
  H         3.6222041511        8.4807693267       29.4802823044
  H         2.8899593188        8.6310531894       31.1817053185
  C         4.3811127426       10.0625983765       30.6271550832
  H        -4.1549524302        8.1806290608       27.2981835635
  H        -4.4798135411        8.9385299530       28.8062307219
  C        -5.1928744996       10.0605058081       27.1833463404
  N        -1.4224347095       15.9994332844       30.9401799733
  C        -1.8611403033       15.8719918039       33.2417774967
  C        -1.8788863862       13.8578303091       34.5500931406
  H        -1.6274770419       12.0649131189       33.4057969316
  H         5.6855142256       13.5062544160       18.2881513920
  H         6.4145013631       11.7350184457       18.0121029972
  H         4.9395020748       11.9958207817       18.8881923654
  S         3.8027634715        9.1007424509       14.6723882354
  C         3.6143629127        6.4958329916       14.1376107040
  H         4.6818386467       10.5133681329       29.6844567137
  H         4.0267807324       10.9443098856       31.2105245083
  C         5.6208618550        9.5138733187       31.3508982690
  H        -4.7123074688       10.7312433235       26.5245810444
  H        -5.7220343278       10.5768593272       27.9341512809
  C        -6.2519931272        9.4960582715       26.3107676457
  S        -1.4500408126       17.5445108133       31.4437844896
  N        -1.8187218580       17.2530422467       32.9692274754
  C        -2.0547227304       15.2878606028       34.5182939640
  H        -2.0969839470       13.3337007212       35.4722009477
  C         4.1022213109        8.4451193171       13.0574903815
  N         3.9856600367        7.0840860572       12.9790235229
  O         3.5373439126        5.2598868373       14.3169030626
  H         6.0036946555       10.2106385977       32.1357004373
  H         6.3778888433        9.6175778749       30.6235252752
  C         5.7009133732        8.0058766770       31.7343643435
  H        -5.7661866103        8.8257339148       25.6640666269
  H        -6.9657147174        8.9775927455       26.9505047048
  C        -7.0282341676       10.5145157050       25.4576760864
  C        -2.4602561716       16.1516038375       35.6036992681
  S         4.4493061823        9.3960834512       11.6108253064
  C         4.0007014012        6.4189617593       11.7592127912
  H         6.5126575292        7.9026814250       32.4328144287
  H         4.8504801425        7.6774802201       32.3937623356
  C         6.1170176526        6.9245482255       30.7263067907
  H        -6.5035192702       10.9191258598       24.6245299868
  H        -7.1927951745       11.3834301369       26.1254697286
  C        -8.3570252246        9.8921529523       24.8851297130
  H        -2.1262497556       17.1247908934       35.4462493884
  C        -3.0753301376       15.9860591966       36.8287835848
  H         4.6554383125        6.9355089157       10.9855702161
  H         4.4163857199        5.4111629082       11.8863293470
  C         2.5882192822        6.1999122535       11.1772574559
  H         7.2035790282        7.0623915436       30.7435001962
  H         5.7225737579        6.9620455129       29.7357737753
  C         5.9230645291        5.4600366739       31.0874822457
  H        -8.6421139405       10.4761127742       24.0782519093
  H        -8.3074168631        8.8504531958       24.4369059099
  C        -9.4253105938        9.9916083304       25.9131290777
  S        -3.7901272865       14.5810827949       37.4035493800
  C        -3.1227748801       17.1237003412       37.7139869753
  H         1.7201836662        6.1938717910       11.8610348947
  H         2.4281155235        6.9127532362       10.4111414034
  H         2.5226247776        5.2253466482       10.6694854161
  H         4.8834243337        5.1240170749       30.9705181938
  H         6.3601574562        5.2882385416       32.0772783440
  H         6.5107858801        4.8698166682       30.4495068943
  H        -9.5394150455       10.9530164627       26.3429089908
  H        -9.1553400395        9.5109400440       26.8269569956
  H       -10.3673544939        9.6529129108       25.5764669267
  C        -4.0371155629       15.4555208198       38.9552887428
  N        -3.7797823039       16.7642142983       38.8466731126
  O        -2.5071472149       18.1829694496       37.4982890997
  S        -4.7904040911       14.8840921265       40.4449662160
  C        -3.9582135457       17.7284882917       39.8704581307
  H        -3.9699331445       18.7039606826       39.4081783251
  H        -4.8956732862       17.6715647957       40.4250861267
  C        -2.7942354909       17.6710067412       40.7764168849
  H        -2.8214130532       18.4365459429       41.5431595167
  H        -2.8625151827       16.8199572123       41.3520849965
  H        -1.8621232409       17.6680641189       40.2287571995
