352
i=
  H         4.4298549386        1.0789956687       13.1073430232
  C         3.8643815614        2.0385275805       13.0993745645
  H         4.7229500605        2.7768652184       13.0899649316
  C         2.9767565904        2.0300955416       11.7861169683
  C         3.1280833287        2.0335781423       14.3758426249
  C         3.7509994608        2.1872718781       10.4938118611
  H         2.1714555503        2.7674672256       11.7901436706
  H         2.5599994060        1.0372629784       11.6897654200
  H         2.2643866865        1.3853957826       14.2148785657
  H         2.7846327563        2.9774953935       14.7158638899
  H         3.8572421368        1.8170122963       15.1621690727
  C         4.8851192872        1.1223047932       10.2290992055
  H         3.0463902349        2.3016531484        9.6941785658
  H         4.2007650459        3.2150305050       10.5661799694
  C         5.5313153822        1.4273858423        8.8686504566
  H         4.5871185853        0.0454212450       10.2684337665
  H         5.5948885186        1.3376268076       11.0090633437
  C         6.6349369439        2.3854497929        8.9486175812
  H         4.8163841903        1.9184869816        8.2423155273
  H         5.8732490213        0.5584882641        8.3521803275
  C         7.9076787700        1.5856273981        9.2421850471
  H         6.8072838911        2.8499271446        8.0166892011
  H         6.5138315391        3.1758639980        9.6144516947
  C         9.1783808665        2.4435951674        9.3852319263
  H         8.1264793079        0.8477122145        8.5114261211
  H         7.8401681480        1.0480279837       10.2080292003
  C         8.9570169153        3.7987420701       10.0893358727
  C         9.5785176728        3.2377183448        8.1643255314
  C        10.3514134952        1.6735557483       10.1532038564
  C         9.0453908386        4.9230407386        9.2748139005
  C         8.3935083224        4.1137873033       11.3459563817
  C         9.5164343952        4.6200855040        8.0445370490
  C        10.0158085720        2.6788962801        6.9151241879
  H         9.9786103979        1.2547661425       11.0553529472
  H        10.6454137045        0.7468980087        9.6942713456
  C        11.5115991156        2.5995799814       10.4887306803
  S         8.7628800471        6.4420523187       10.1035969321
  C         8.2693482728        5.4916771205       11.4982253793
  H         8.0879716635        3.3105018401       12.0134765781
  C         9.7738674782        5.2925275962        6.8682631790
  H        10.1790383811        1.6269692309        6.8971998699
  C        10.3884380104        3.3593489005        5.7989840401
  H        11.2324102858        3.3740067812       11.2290897332
  H        11.8182911684        3.0500102361        9.5507539591
  C        12.6080940401        1.8426853317       11.2416379954
  C         7.7650666756        6.1885581669       12.7585776022
  C        10.3510473084        4.7128353508        5.7640340158
  H         9.7369033246        6.3975420639        6.8941599138
  C        10.7230890593        2.9745132922        4.5206937891
  H        13.5452404434        2.1772362621       10.8688638783
  H        12.4981918820        0.7935692145       10.9839487273
  C        12.4152205917        1.8497441596       12.8296537184
  C         7.8594780296        7.5537070893       13.1263108114
  C         7.3749339607        5.3153178099       13.8632268268
  C        10.6858273517        5.4544036618        4.5481935993
  C        11.0230571834        4.0871984496        3.7968320400
  S        10.8946513191        1.5151450168        3.6705126780
  H        11.8497429013        2.7485935758       13.1781713285
  H        11.8983805165        0.9212882164       13.1240116137
  C        13.7341171377        2.0475645705       13.5530133393
  N         8.2375123550        8.5540894997       12.2373691224
  C         7.6098183484        8.0875175026       14.3987983203
  C         6.9375766801        5.8304743655       15.0993363795
  H         7.3330133813        4.2635466048       13.6736913856
  C        11.9308996694        6.3451406245        4.7814087299
  C         9.5222257536        6.1394449037        3.7600099025
  C        11.4748240264        3.7158297563        2.5176638568
  C        11.5207403300        2.3530413801        2.3462336654
  H        14.0068554285        3.1032650906       13.6474959423
  H        14.4930267536        1.4560005141       12.9192545193
  C        13.5958043814        1.5305904415       15.0068674903
  S         8.2228449574       10.0292104482       12.9405059687
  N         7.8328778662        9.4494369464       14.4500539668
  C         7.1165712020        7.2547094419       15.4396267173
  H         6.6053989577        5.2098359321       15.8859652758
  H        11.6740866871        7.2552630871        5.3503374545
  H        12.3329061687        6.5767629762        3.8210847199
  C        13.0745837046        5.6544850509        5.5209505971
  H         9.2341645703        6.9614024508        4.4454553614
  H        10.0672127224        6.6580382281        2.9255229516
  C         8.3750303872        5.2412913559        3.2208001843
  H        11.7810522517        4.4487673374        1.8364624896
  C        11.8252256491        1.6511221473        1.0648132559
  H        13.3689386175        0.4549731253       14.9727155119
  H        14.6891173770        1.5783756692       15.2020355538
  C        12.5814687824        2.2738228695       15.9018517025
  C         6.8566040112        7.8284101297       16.7652696939
  H        12.7500941794        5.2171907417        6.4339520362
  H        13.3383619634        4.7611164503        4.9255376387
  C        14.4113643884        6.3766903908        5.6602940371
  H         7.7434578621        4.7955276373        4.0097464354
  H         8.6728632638        4.4271501713        2.5942556393
  C         7.5351883684        6.0218273484        2.2522435860
  C        11.7442940918        0.2415804310        0.8590370834
  C        12.0973018859        2.5057032694       -0.1199898047
  H        11.6252995228        1.8319959837       15.6824914055
  H        12.4800239731        3.2847280367       15.6290761738
  C        12.8918975516        2.2016871499       17.3762023443
  H         7.2168777772        8.8946119029       16.8749662440
  C         6.6763877811        7.3128475967       18.0220751866
  H        14.2534011083        7.0785797853        6.5091180075
  H        14.5806040874        7.0021469671        4.7966471801
  C        15.5917039711        5.4266001101        5.9473297618
  H         8.1628758226        6.7897511510        1.8356131264
  H         7.2578031393        5.3640864400        1.4451807386
  C         6.2568526315        6.5503638209        2.9221073447
  N        11.2510053309       -0.6507027944        1.7873157685
  C        12.1009301911       -0.3207490289       -0.3495631665
  C        12.4222944061        1.9063140782       -1.3264875905
  H        11.9474821825        3.5861045714       -0.0588651705
  H        12.4568190888        3.0290008767       18.0181814825
  H        13.9139203540        2.3325986393       17.3895175350
  H        12.6268173316        1.3166781488       17.9499065341
  S         6.2251919901        5.7227219095       18.4739338953
  C         6.5426600970        8.3292701025       19.1293175100
  H        15.4103678945        4.6959009149        6.7696171658
  H        15.9502329871        4.8712493586        5.0438882033
  C        16.6757468465        6.2398227210        6.5901301435
  H         6.4556177761        7.3647439420        3.5103655879
  H         5.7618656206        5.7949281592        3.5178507118
  C         5.1322995877        6.8432417271        1.9247785366
  S        11.2451085599       -2.1057374506        1.0855392806
  N        11.9843714408       -1.7085258900       -0.3366847157
  C        12.4586569051        0.4122278802       -1.5060976305
  H        12.6979222112        2.5341841059       -2.1271362355
  C         5.9970889250        6.3763155764       20.0890736494
  N         6.1759089315        7.7202769620       20.2281386801
  O         6.4806105510        9.5864627187       19.0300760233
  H        16.7603270755        7.1463131962        5.9597805932
  H        16.5366117188        6.5148036802        7.6729050297
  C        17.9460076394        5.4128847044        6.5868302725
  H         5.5378995375        7.2553265832        1.0089129883
  H         4.6549187636        5.9050906788        1.6344569936
  C         4.0038059644        7.8153887526        2.3793075835
  C        12.7927986554       -0.3036113785       -2.6911714237
  S         5.7190986710        5.2964448984       21.4627293046
  C         6.2367813476        8.4122502009       21.5759501238
  H        17.7750140035        4.6629998307        7.4022468969
  H        18.1895651940        4.8729474335        5.6037016064
  C        19.2075037981        6.0665940345        7.0342729463
  H         4.2070529292        8.0643683704        3.3874783665
  H         3.0231297169        7.3379708506        2.4859218347
  C         3.9060838132        9.1731084049        1.6470860823
  H        12.6041906650       -1.3097039671       -2.7243153576
  C        13.3221833399        0.1606853325       -3.8898782537
  H         5.6274787831        7.8381370131       22.2617905604
  H         5.7901353883        9.4072306732       21.6348217910
  C         7.7275887633        8.5272276279       21.9466658188
  H        19.3519189074        5.8786824062        8.1067187802
  H        19.1956114615        7.1504069645        6.8378665624
  C        20.3946679921        5.4403264117        6.3722511389
  H         3.1411199385        9.7560206304        2.1664428687
  H         4.8654584762        9.7394049198        1.6472442820
  C         3.5783351109        9.0270586759        0.1844037038
  S        13.9856947954        1.6877298588       -4.2421112897
  C        13.4100466305       -0.7817706398       -4.9701649994
  H         8.2203460554        7.5473670693       22.0538361739
  H         7.7470926847        9.0811205116       22.9270955551
  H         8.2865681115        9.1028201908       21.2246434147
  H        20.4503681837        5.9292158269        5.3869722773
  H        21.2867075693        5.6938073810        6.8176081136
  H        20.2186075580        4.4105993138        6.1832808568
  H         2.6609177951        9.6159849112       -0.1114511975
  H         4.4488947538        9.3038654665       -0.3482024200
  H         3.4779507762        7.9704994564       -0.0919136041
  C        14.2978076886        1.0565526882       -5.8626444359
  N        14.0107374036       -0.2481827491       -5.9699707370
  O        13.0839554571       -1.9496167115       -4.9315617871
  S        15.2402378877        1.8708517789       -7.1344886533
  C        14.2903772152       -1.0244070604       -7.1812767184
  H        14.5394984632       -1.9609448821       -6.8046755959
  H        15.1308752588       -0.6495719668       -7.7046550597
  C        12.9942982288       -1.1082636285       -8.0865688036
  H        13.2015735645       -1.5490592517       -9.0566366409
  H        12.6776534772       -0.0941711093       -8.1304091335
  H        12.1557423471       -1.6586767760       -7.5509003718
  H        -3.3408150866       14.6549876423       16.4194436089
  C        -3.1285922888       13.6485876962       16.3856644293
  H        -4.0284093080       13.0074853890       16.4853760430
  C        -2.1885698819       13.4459693310       17.5414726997
  C        -2.4173318624       13.2132806781       15.0856871210
  C        -2.7733409117       13.7049310387       18.9386023539
  H        -2.0319070366       12.4122823867       17.4468696198
  H        -1.3074218872       14.0260342866       17.3804860162
  H        -2.0998245201       12.1540205697       15.2269560594
  H        -2.9929514738       13.1738619650       14.2547968587
  H        -1.5152118262       13.7960224877       14.7850350527
  C        -1.6991803541       13.5581957952       20.0052399355
  H        -3.5969062877       13.0201780720       19.2320558970
  H        -3.2892517439       14.6564905950       18.9393379749
  C        -2.2042414268       13.3938010778       21.4525684474
  H        -1.0373811500       12.7617149842       19.7009853973
  H        -1.1098952734       14.4212401781       19.9600838683
  C        -1.1483898145       12.6978969131       22.3883315660
  H        -3.1133666603       12.8119203594       21.3492947587
  H        -2.3987528294       14.4235556680       21.8682222080
  C         0.0904582179       13.5412987134       22.6865010003
  H        -1.5420853044       12.4793294564       23.3900463497
  H        -0.9762852969       11.7334668791       21.9387627262
  C         1.1904763312       12.7681399812       23.3587266813
  H         0.4203323032       13.9594865332       21.6953262310
  H        -0.1516917948       14.4273570203       23.2508686876
  C         1.5437352396       11.3928545872       22.7291698655
  C         0.7538632590       12.0625927222       24.5970262900
  C         2.4384450052       13.6169549390       23.5095570672
  C         1.4606325044       10.3472442296       23.6278103834
  C         2.1227036398       11.0291646894       21.5326586801
  C         0.8545665771       10.7086951364       24.7792607590
  C         0.1789535916       12.7336949309       25.7350427381
  H         2.6737705933       13.9573479846       22.4778962539
  H         2.2254679746       14.5476822023       24.0518252129
  C         3.6412048265       13.0138874238       24.1979492492
  S         1.8341966316        8.8434460784       22.8258548663
  C         2.2668115285        9.6889578119       21.3862096589
  H         2.3695966597       11.7964347086       20.7643491313
  C         0.5015485492       10.0392164906       25.9019034589
  H         0.2261337728       13.7862182674       25.6638012048
  C        -0.1730974626       12.1144792016       26.8352042079
  H         3.9519285253       12.0860233340       23.7152934763
  H         3.3958018869       12.7912907815       25.2543778146
  C         4.8935699135       13.9128417238       24.2685085256
  C         2.6936637898        8.9265158262       20.1586089305
  C        -0.0474313630       10.7726709558       27.0496858857
  H         0.6006133031        8.9929882314       25.9289951862
  C        -0.7386701439       12.5263643548       28.0285662717
  H         5.6072924819       13.6015188773       24.9578996389
  H         4.6056606390       14.9273476310       24.5221613631
  C         5.5122988010       14.1197217937       22.9602294839
  C         2.6489346222        7.5101346951       19.8520564570
  C         3.1408010289        9.7109544903       19.0014577301
  C        -0.5036103140       10.1654772872       28.3725659587
  C        -0.9135444133       11.4806266054       28.9839827766
  S        -0.9667736842       14.0493368403       28.7810435182
  H         6.1549560793       14.9963511607       23.0834470122
  H         4.8357769812       14.3432329118       22.1939225987
  C         6.4289226577       12.9813415423       22.3967778134
  N         2.1443807798        6.5606433110       20.8158620484
  C         2.8650008191        6.9605250895       18.6322088847
  C         3.3340938368        9.2070290812       17.6864170792
  H         3.4454689251       10.7267352861       19.2381709087
  C         0.5364984939        9.4198230929       29.2218203168
  C        -1.8027630657        9.3624875920       28.2340312437
  C        -1.2616903888       11.9750715409       30.2621748609
  C        -1.2785399436       13.3387198871       30.3041689803
  H         7.3279986602       13.4123094223       22.1459953211
  H         6.7284687433       12.2525349088       23.1741444725
  C         5.8556348288       12.1794160248       21.2596064027
  S         2.0673760016        5.0822782822       20.1460650940
  N         2.6779252478        5.5788369601       18.6504492994
  C         3.2986295268        7.7139126030       17.4925910585
  H         3.6323599551        9.9305632827       16.8667102187
  H         0.9618847013        8.7228735751       28.4757462627
  H         0.0029910615        8.8763366100       29.9771312786
  C         1.6339455525       10.2293511179       29.8354660328
  H        -1.6236980705        8.6640525015       27.4180491394
  H        -1.9793275360        8.7266537571       29.1283851428
  C        -3.0227455834       10.1522635756       27.7215000155
  H        -1.2224499840       11.2145665202       31.0544094905
  C        -1.5509070544       14.1867845372       31.5374923018
  H         4.8351313180       11.8993313223       21.3460237576
  H         6.4014307058       11.2922997768       21.0832675334
  C         6.0123455217       12.8816787142       19.8768736063
  C         3.5939296838        7.0753626511       16.3056197098
  H         1.9477357597       10.8000559197       28.9931043573
  H         1.4211489622       10.9809580450       30.6557173508
  C         2.7819407543        9.4301518180       30.3837693461
  H        -2.8101545727       10.5646232503       26.7482303633
  H        -3.3280050286       10.9523062586       28.3850938937
  C        -4.2423151403        9.2685787895       27.3615361024
  C        -1.6913416411       15.6085856251       31.5081719119
  C        -1.8332410315       13.5559183225       32.8135590166
  H         5.4337637496       12.3255080870       19.1237619998
  H         5.5563731117       13.8634328199       19.9897895945
  C         7.4305158418       13.0915497778       19.3667323384
  H         3.3368678172        6.0336283870       16.3471933428
  C         3.9157987529        7.5184538925       15.0208650541
  H         3.1757640407        8.8119785974       29.5682610651
  H         2.3274282296        8.7044046022       31.0783461502
  C         3.8276593670       10.2816630383       31.0504833827
  H        -4.0980334136        8.5172195026       26.5051331958
  H        -4.4093123867        8.7127312505       28.2865616319
  C        -5.3696683145       10.2169199816       27.0917033231
  N        -1.4809468583       16.4230929591       30.3847045725
  C        -1.9885362660       16.3617276266       32.6249619675
  C        -2.1848043007       14.3097406629       33.9434211339
  H        -1.6633425430       12.4951756078       32.9417873194
  H         7.3954231405       13.2598454306       18.2983215376
  H         8.0963506159       13.7935038946       19.8273679766
  H         8.0202275773       12.1696569713       19.3888719770
  S         4.1823813682        9.1266106851       14.4876479822
  C         3.9893008028        6.4700374836       13.9307510547
  H         3.7024050057       11.1958358876       30.4572430058
  H         3.3882970005       10.5597796004       32.0280247170
  C         5.2347033970        9.7679840302       31.0858903406
  H        -5.1106644384       11.0579581778       26.4162481498
  H        -5.8248123033       10.7218441675       28.0081666682
  C        -6.5390330390        9.5110042493       26.3920478211
  S        -1.5107987486       18.0410379829       30.8068041847
  N        -1.8437248960       17.7814870198       32.4574285826
  C        -2.2220688573       15.7536789076       33.8464097835
  H        -2.3110421304       13.7898288084       34.8839047587
  C         4.3943325536        8.4845361497       12.8700315945
  N         4.2649696834        7.1225740611       12.7692637243
  O         3.7492717825        5.2689722680       14.1640598896
  H         5.9222690668       10.5237651585       31.5155434529
  H         5.5336020774        9.6805470860       30.0588414996
  C         5.2666856816        8.5036428191       31.8659314427
  H        -6.1940399288        8.7598533329       25.6889465353
  H        -7.2909242885        9.1439372842       27.1499496170
  C        -7.3056718172       10.5657302505       25.6084529725
  C        -2.5064443108       16.5256484912       34.9689709035
  S         4.6788073160        9.5126325392       11.5105773325
  C         4.2826250588        6.3957382616       11.4695164891
  H         6.0865407991        8.6251829055       32.6239573545
  H         4.3049786162        8.3163219769       32.3851562337
  C         5.5377935813        7.2163599156       31.1333778886
  H        -6.6286439218       10.7379884731       24.7554819863
  H        -7.5238999117       11.4356103486       26.2504056415
  C        -8.6113222305        9.9433188626       24.9864395587
  H        -2.3092292168       17.5890194629       34.7896917994
  C        -3.0119810553       16.2703756990       36.2536463440
  H         4.9501732975        6.9097543464       10.8178754476
  H         4.6681750753        5.3211600930       11.5019740338
  C         2.8764732275        6.5135514020       10.8373667904
  H         5.1621440405        7.2346430199       30.0829309780
  H         5.0047251108        6.5371245034       31.7692658374
  C         7.0380050428        6.8623681394       31.0052175175
  H        -8.7238448752       10.3734458708       24.0025230676
  H        -8.4003381295        8.8797294575       24.8564800525
  C        -9.8210068262       10.0009061405       25.9255050120
  S        -3.5173429141       14.6920997780       36.8600421146
  C        -3.1019458103       17.3879263872       37.1915011113
  H         2.6186888040        5.5473421301       10.3656132262
  H         2.1327830883        6.6673469027       11.5372803781
  H         2.6676172145        7.3109829601       10.1262818741
  H         7.4346510491        7.2961110109       30.0140279567
  H         7.0956611644        5.7546228905       31.0194373067
  H         7.5904500545        7.1442353553       31.8230791341
  H        -9.9245118706       10.8983801425       26.4153135830
  H        -9.9125966923        9.2036460347       26.5640787105
  H       -10.7029361049        9.7402784670       25.3406521485
  C        -3.8757213043       15.6322201422       38.3528063924
  N        -3.5333383373       16.9303291545       38.3574364916
  O        -2.7251786694       18.5737486224       36.9923364321
  S        -4.5238173001       14.9393164784       39.8481090542
  C        -3.5758748665       17.7280219062       39.5379286137
  H        -3.7703390277       18.7088980834       39.2087689759
  H        -4.4469270006       17.5045344763       40.1256723928
  C        -2.1549933995       17.6727864241       40.2224545759
  H        -2.0125822298       16.6550108727       40.6760574271
  H        -1.3684142536       17.9454307006       39.5402363314
  H        -2.3256617397       18.3284444525       41.0623090054
