352
i=
  H         3.4182106629        1.0170419396       13.7463124320
  C         4.0909412253        1.8396503855       13.4590427263
  H         4.9142230969        1.2558262528       13.0869646501
  C         3.4043249069        2.5640202405       12.2383476149
  C         4.5426384866        2.8150304758       14.6176332322
  C         4.4711311891        2.9983870441       11.2087119058
  H         2.7906681570        3.4303719352       12.5181279020
  H         2.5513553564        1.9907998731       11.8581632356
  H         3.7966943654        3.3859023858       15.0460178085
  H         5.1211572958        3.5708900895       14.2730099786
  H         4.9133005883        2.2255290311       15.4280052144
  C         4.8607523941        1.7836457069       10.4424672779
  H         4.2518839035        3.8735688204       10.5928383472
  H         5.3437958346        3.3739091228       11.6462148210
  C         5.4202567107        1.9518140497        9.0382548488
  H         3.8914881064        1.2989025004       10.4245856194
  H         5.5190085804        1.1743607847       10.9931133981
  C         6.7826002574        2.7000450890        8.9237975295
  H         4.6981712702        2.5928455482        8.5608956151
  H         5.3720214509        0.9779150797        8.5724109912
  C         8.0532201033        1.9086325744        9.3954221689
  H         6.9028949219        2.9928760295        7.8690745177
  H         6.7183604006        3.5738009858        9.5109039801
  C         9.3055866947        2.7156763506        9.4228991486
  H         8.3341520208        1.1404583680        8.6475058085
  H         7.9307778335        1.4350778812       10.3749731227
  C         8.9880615432        4.0566516762       10.0762000051
  C         9.6264861121        3.3710333009        8.1340607287
  C        10.4353774089        2.0097860821       10.2496659383
  C         9.1303080256        5.1286053059        9.2139779420
  C         8.7276881270        4.4823118342       11.4025019758
  C         9.5440349696        4.7064617170        7.9749030685
  C         9.9779149555        2.8139888897        6.9420812591
  H        10.0356771041        1.6735449230       11.2391092660
  H        10.7825586100        1.2071526232        9.6945208779
  C        11.5499821326        2.9998284872       10.5486504709
  S         8.7907234797        6.7266172612        9.9142988889
  C         8.4936053074        5.8462840946       11.4324701216
  H         8.6966414861        3.7507935478       12.1602589095
  C         9.8701861342        5.3094435398        6.8170449574
  H         9.9378928339        1.6380978182        6.8862241076
  C        10.3169643719        3.3797611696        5.7514227748
  H        11.3285880482        3.9736939075       11.1276465224
  H        12.0503984836        3.3323254653        9.6565019588
  C        12.5423631628        2.4243156255       11.5410482900
  C         7.9991430566        6.6281478225       12.6057510783
  C        10.2221857508        4.7011587898        5.5966490383
  H         9.9053280310        6.3778003164        6.7110949872
  C        10.6722613949        2.9766972339        4.5042287879
  H        13.5957684286        2.5854496815       11.1884324790
  H        12.5664490547        1.3947402687       11.4600868770
  C        12.2993792753        2.7843669543       13.0370325435
  C         7.9036897588        8.0466534292       12.8437174423
  C         7.3331078090        5.8237324599       13.6793074693
  C        10.5757188611        5.4050199517        4.3314837991
  C        10.8158022752        4.0439584658        3.6479574321
  S        11.0550819159        1.4980925786        3.8290484778
  H        12.5265833032        3.7828234144       13.3050066161
  H        11.2429412434        2.7756832203       13.1811688714
  C        13.2008720195        1.8561912795       13.8196521327
  N         8.0315133691        9.0514466495       11.8785142007
  C         7.6064989999        8.5058121865       14.1368789747
  C         6.9597203863        6.2865033098       14.8911636648
  H         7.0542894541        4.8257055001       13.4906975807
  C        11.8695253564        6.2284556324        4.5816948792
  C         9.4883555246        6.1836283316        3.5580850482
  C        11.2938936115        3.6492162793        2.3761155344
  C        11.4112307185        2.2992842485        2.3069652312
  H        13.9652518002        2.4609705486       14.3957434723
  H        13.6937883816        1.1087022304       13.1736421453
  C        12.2229599945        1.0689622426       14.7019360212
  S         8.0221778416       10.4133129633       12.6494106154
  N         7.7142709309        9.8778750151       14.1549448833
  C         7.1335562954        7.7132068605       15.2125564078
  H         6.5268922977        5.5523833953       15.5457184528
  H        11.5919564086        7.1234111528        5.1932423566
  H        12.2415313317        6.5649562231        3.6124065551
  C        13.0212982087        5.3970127296        5.2452689131
  H         9.1048443076        6.9595890356        4.1918598938
  H         9.9394269969        6.5972311652        2.6748574126
  C         8.2650617932        5.4159480921        3.0964643597
  H        11.4416284899        4.4798472296        1.6495944424
  C        11.7313624440        1.5120853387        1.0854475896
  H        11.3682487375        0.7080548243       14.1235462067
  H        12.7056331415        0.1521756849       14.9555627773
  C        11.7423951669        1.8626815708       15.9136715067
  C         6.8764201475        8.3820071298       16.4690551791
  H        12.8487041885        5.0006550709        6.2786636631
  H        13.2570790418        4.5501750325        4.6845444253
  C        14.2993503155        6.2177907811        5.3414382613
  H         7.8390495584        4.8847438748        3.8979170133
  H         8.7115906721        4.5366471033        2.5396200909
  C         7.1921961871        6.0073790769        2.2187355678
  C        11.7746926607        0.0729065639        1.0083789255
  C        11.9518537139        2.2525365991       -0.1418202117
  H        10.9470564325        1.2284570413       16.2975082110
  H        11.0387100977        2.6735515060       15.7138507732
  C        12.7891036103        2.0738471415       16.9678660838
  H         7.0875260134        9.4414292255       16.5813674911
  C         6.5318425848        7.8074048627       17.6926631257
  H        14.2025363746        7.1452173167        5.9018849312
  H        14.5705039202        6.5679284966        4.3385255467
  C        15.4775553127        5.4146076631        5.8652455504
  H         7.6098011423        6.8118622898        1.6942502297
  H         6.8840309761        5.2012692313        1.5329519076
  C         5.9394826602        6.4709328894        2.9693873238
  N        11.6713796925       -0.8711575912        2.0588193754
  C        12.0604134825       -0.5179546502       -0.2422731284
  C        12.2217382350        1.6666484219       -1.3306158710
  H        11.8412890631        3.3303281982       -0.2262870871
  H        12.5569967764        2.5060874025       17.8615832322
  H        13.6857357923        2.6822301846       16.5319568109
  H        13.1332318658        0.9893980446       17.1926262420
  S         6.2843418463        6.1198944795       17.9856859041
  C         6.4089543071        8.8129507349       18.8474828285
  H        15.1772148537        4.8235294608        6.6840861298
  H        15.9442039022        4.8301585294        5.0432605693
  C        16.6547360991        6.2262019642        6.5017952838
  H         6.3310005316        7.2810948869        3.5895802864
  H         5.6600478221        5.5881546010        3.6177761094
  C         4.8165448623        6.9798588796        1.9563456265
  S        11.6977946814       -2.3886296397        1.4042868458
  N        12.0815401064       -1.9053745710       -0.1321866958
  C        12.3092093688        0.1942941482       -1.4347362638
  H        12.3782446802        2.2866215880       -2.2841255624
  C         5.9696565823        6.7293631623       19.6488703450
  N         5.9549843212        8.0632723008       19.8715331459
  O         6.5010328088       10.0353283558       18.8137510937
  H        17.2285350501        6.6881555308        5.7186021875
  H        16.2964635275        7.0711338301        7.0918589086
  C        17.6290496218        5.3605969888        7.2927707776
  H         5.3024638522        7.6340242811        1.3111242549
  H         4.4342315991        6.2425487287        1.2972004871
  C         3.6593825323        7.8239989484        2.5890690920
  C        12.5766839615       -0.4868966052       -2.6800109037
  S         5.2549679616        5.7681177072       20.9024720162
  C         5.7536605324        8.6735577889       21.1734757586
  H        17.4039777980        5.6390754763        8.3141314514
  H        17.5044352245        4.2515657743        7.1958878116
  C        19.0412515999        5.9480443921        7.0253325308
  H         3.5847636502        7.7173946915        3.6312607648
  H         2.7145550290        7.4820849665        2.1991081792
  C         3.7907507604        9.2768580630        2.1896636032
  H        12.4004910963       -1.5662716938       -2.8122585278
  C        13.2723569186       -0.0366489406       -3.7791434148
  H         4.9525106707        8.2827224176       21.7776016547
  H         5.5449376541        9.7258231597       21.1039647809
  C         6.9958615678        8.5968126440       21.9750099580
  H        19.6767150527        5.7468479100        7.8687258572
  H        18.9231402815        6.9980421914        6.9214178351
  C        19.7897524813        5.3021040255        5.8922370618
  H         3.0393905283        9.8024484018        2.6333547977
  H         4.8244680521        9.6475183145        2.4241151874
  C         3.6438082505        9.5489260263        0.7006530853
  S        14.0232801691        1.4806763821       -4.0484152888
  C        13.2291139293       -0.9909685505       -4.9208974346
  H         6.7734244341        8.2261674566       22.9625541228
  H         7.5068442535        9.5222229779       22.0867039795
  H         7.6712930310        7.9008364601       21.4522210133
  H        19.8006253066        4.2686461797        5.9483829482
  H        19.4330480822        5.7616931882        4.9986666812
  H        20.8942184214        5.6056721877        5.9177115239
  H         3.4438081007       10.5824685398        0.5717372379
  H         4.5675951334        9.3150563514        0.1432888789
  H         2.9162034979        8.8727639212        0.2018908193
  C        14.4564318502        0.7601994743       -5.5982526349
  N        13.9725526226       -0.5071804433       -5.8492781657
  O        12.6245977535       -2.0344497791       -4.9782192085
  S        15.2108001865        1.5780331742       -6.9396676784
  C        14.2800767194       -1.2525792392       -7.0921821896
  H        14.3821050873       -2.2647327835       -6.9041666622
  H        15.3679749043       -1.1228912069       -7.3689595849
  C        13.3365084671       -0.9891091697       -8.2701077218
  H        12.4224483086       -0.4732774681       -7.8904149529
  H        12.9208178569       -1.8997745275       -8.7316974989
  H        13.9433026124       -0.3726256249       -8.9113223550
  H        -2.7327268927       15.2299934534       17.0512810723
  C        -2.9619518359       14.1610238847       17.0383613886
  H        -3.9641848759       14.1920290107       17.3268625955
  C        -2.0892214596       13.5278821729       18.0809500612
  C        -2.7596825386       13.7310181123       15.5428719889
  C        -2.6384583557       14.0218761220       19.4335289008
  H        -2.1035292533       12.3904749791       17.9680031421
  H        -1.0536161845       13.8783422156       18.0116091649
  H        -2.8639116008       14.6047223671       14.8840813159
  H        -1.7256221125       13.3963929542       15.4235159109
  H        -3.4402800217       12.9926456086       15.2717081527
  C        -2.2759608210       13.0033441025       20.4928425935
  H        -3.6709559849       14.1444697472       19.4125764654
  H        -2.1434393787       14.9627854600       19.6527922767
  C        -2.7357043979       13.1683639746       21.9857235610
  H        -2.6835344249       12.0688981915       20.1096909124
  H        -1.1937090464       12.8452696421       20.4946584441
  C        -1.6995606552       12.7798570910       23.0023844853
  H        -3.6134304928       12.4720876395       22.1870381704
  H        -3.0785936157       14.1909062741       22.1295237168
  C        -0.4453700184       13.6598831301       22.9426787024
  H        -2.0966136231       12.6288686871       24.0123278334
  H        -1.4817383379       11.6980671128       22.7046028723
  C         0.8363785514       13.0695404580       23.6340905757
  H        -0.1526285022       13.9324803678       21.9135110638
  H        -0.6473226741       14.5985249500       23.4769699984
  C         1.2212290945       11.7957015575       22.8725038719
  C         0.5417091390       12.2975421836       24.8617780420
  C         2.0415715725       13.9183550706       23.7382289097
  C         0.9711081905       10.6700548142       23.6389557235
  C         1.7600337294       11.4743882058       21.6257290849
  C         0.5428081155       10.9552954053       24.9555736100
  C         0.0468696310       12.8920414153       26.0585647395
  H         2.0332549858       14.4564676380       22.8333640326
  H         1.8382831261       14.7361613068       24.4199390481
  C         3.3903467249       13.2733823902       24.0594235442
  S         1.3409478229        9.1906912056       22.8844772677
  C         2.0141444269       10.1189758286       21.5497117599
  H         1.9824230511       12.3178855889       20.9416393506
  C         0.2356466367       10.2903471938       26.0745269144
  H         0.0892336005       13.9841930635       26.0709712043
  C        -0.2369212483       12.2382641313       27.2117274350
  H         3.5760733295       12.4477995931       23.4329921340
  H         3.4392853154       12.9227906987       25.1664850821
  C         4.5707318688       14.3114821953       23.9738170617
  C         2.5331526855        9.4616854572       20.3176049024
  C        -0.2026969227       10.8553192358       27.3126493637
  H         0.2494270278        9.1497894766       25.9264757800
  C        -0.7224867382       12.5853255010       28.4208810458
  H         5.5143361862       13.9266945702       24.4419099492
  H         4.2981702227       15.1957515636       24.5760928966
  C         4.8027130466       14.9061738032       22.5867402781
  C         2.5434115654        8.1123961461       20.0667357965
  C         2.9967530225       10.4138178855       19.2611260617
  C        -0.5883035506       10.1620277290       28.5611422205
  C        -0.8548509430       11.4991376096       29.2737855480
  S        -0.9639069426       14.0799315373       29.2379610773
  H         5.1183856371       15.9186218036       22.7174891182
  H         3.8898596615       14.8557012280       21.9738014191
  C         5.9010410816       14.0930940902       21.8662167092
  N         2.0710495771        7.0738801923       20.8644985270
  C         2.8224356566        7.6063919813       18.8033201012
  C         3.2525404934        9.8330009628       17.9764299407
  H         2.9759706866       11.5125351529       19.3664466970
  C         0.5264027012        9.3858942982       29.2012207592
  C        -1.8657808878        9.3092015686       28.5140629364
  C        -1.1010029653       11.9390940254       30.5699948462
  C        -1.3572811444       13.2866323500       30.6788590885
  H         6.7941090674       14.7047983380       22.1180423124
  H         5.9915404802       13.0236801263       22.2841534728
  C         5.7931576952       13.9038750557       20.3162252220
  S         2.0989781475        5.6451654843       20.1168255321
  N         2.7243427553        6.2405001666       18.7697620046
  C         3.1485826003        8.3902797700       17.6849041407
  H         3.6988508681       10.4550595151       17.2781827720
  H         0.7241691575        8.5348656020       28.6195472859
  H         0.2672729007        8.8143176353       30.0380124979
  C         1.8310831757       10.1433557856       29.4771608037
  H        -1.6464247455        8.4854849252       27.8695311676
  H        -2.0320084643        8.8131723674       29.4582752108
  C        -3.1754307639       10.0296292131       28.0159788823
  H        -1.1102605732       11.2843215275       31.3982492724
  C        -1.8205787570       13.9766925366       31.9425774643
  H         5.4553027505       14.8279008698       19.8176315126
  H         5.0977752022       13.1179460313       20.0206970423
  C         7.0977921776       13.4993115711       19.6872751742
  C         3.3865564217        7.6575653120       16.4762314970
  H         2.1734804422       10.6452974541       28.5806074555
  H         1.6159490487       10.8156862509       30.3643898370
  C         2.8864846526        9.0779986113       29.5616516451
  H        -2.9550378716       10.7521658594       27.2692874348
  H        -3.5168964476       10.6799777058       28.8103530251
  C        -4.2712735801        9.0987014443       27.5607833378
  C        -1.9260382554       15.3543957664       32.1208506896
  C        -2.0367155993       13.2315139465       33.1898231067
  H         8.0274850371       14.0748804621       20.0729200581
  H         7.2159721535       12.4930303670       19.9769283473
  C         7.1452438500       13.4836625043       18.1488985343
  H         3.1620406667        6.6049221825       16.5656081085
  C         3.6810320865        8.0877572955       15.1985466347
  H         3.0109263672        8.5002170692       28.6815145481
  H         2.5064804464        8.2874774680       30.2296767499
  C         4.1062159660        9.7039270251       30.2000642451
  H        -3.9741715594        8.4878550451       26.7087033407
  H        -4.6369529961        8.4550724369       28.3932484838
  C        -5.4570353055        9.9591445091       27.0423543783
  N        -1.5665765715       16.2998952504       31.1312842760
  C        -2.3624567874       15.9700587721       33.2718680805
  C        -2.3415300324       13.8337148475       34.3925154872
  H        -1.7800252006       12.1733182772       33.2319269766
  H         6.8130022521       14.4567187684       17.7444280515
  H         8.1437473317       13.2773294722       17.8069608831
  H         6.5291178211       12.7439578216       17.7672779014
  S         3.9888241307        9.7690672364       14.7061352309
  C         3.7106427676        7.0210192441       14.0866532507
  H         4.5133075974       10.4972571166       29.6166100098
  H         4.0123879426       10.2495709647       31.1126458379
  C         5.1426136612        8.6433827855       30.4628857251
  H        -5.0911039984       10.7622192387       26.4805784743
  H        -5.9292048167       10.2276412406       27.9844722808
  C        -6.4355389523        9.2299419127       26.1902518414
  S        -1.7077392824       17.7830673721       31.7009464662
  N        -2.3071008594       17.3843751483       33.1401952329
  C        -2.6260899522       15.3086983008       34.4369293209
  H        -2.4713980629       13.2796107343       35.3255561852
  C         4.2760023413        8.9812041133       13.0960984831
  N         4.2089605326        7.5944874895       13.0208171579
  O         3.4016086415        5.8394259111       14.2203260889
  H         6.1106689094        9.0447186218       30.3231572461
  H         4.9585546812        8.0009929199       29.5906804600
  C         4.9151689136        8.0227519224       31.8516412314
  H        -5.8140146987        8.6755907918       25.4831441857
  H        -6.9504674486        8.5905628473       26.8553532813
  C        -7.3587845385       10.1670171331       25.5251005353
  C        -2.7835073496       16.0984813468       35.5825928541
  S         4.6884307288        9.7800798495       11.6152683584
  C         4.2604966660        6.8332866730       11.8083028729
  H         5.2362317169        8.7532477875       32.5582731223
  H         3.8445294745        7.9795449864       32.1312881302
  C         5.7373793103        6.7118542817       32.0816008616
  H        -6.7405699721       10.7113376338       24.8593601515
  H        -7.6657164038       10.8408240938       26.2955043865
  C        -8.5174541990        9.5590399220       24.8291862209
  H        -2.3752056103       17.0574747068       35.4624434326
  C        -3.1996607229       15.7775164226       36.8293091530
  H         5.0458570017        7.2560272910       11.1901037470
  H         4.6580237593        5.8548215351       12.0705812205
  C         2.9403678295        6.8433392774       11.1265957427
  H         4.9653809457        6.0158755641       32.4041033116
  H         6.3333035552        6.9043199419       32.9852550700
  C         6.6418639896        6.1827725369       30.9403397715
  H        -8.9326441135       10.2093252984       24.0371564955
  H        -8.2527293680        8.6568098465       24.3814361599
  C        -9.7066590095        9.3019973530       25.7689775051
  S        -3.9824332177       14.2768285455       37.2964788057
  C        -3.1313749440       16.8216316634       37.8671539181
  H         3.0333776906        6.1460111531       10.2969665229
  H         2.1740811624        6.4750254919       11.7826941032
  H         2.6881113361        7.8059538800       10.6769028028
  H         7.6753755106        6.4990096440       31.0710161381
  H         6.1985434351        6.3164199221       29.9835054953
  H         6.7134307082        5.0993335474       30.9738525101
  H        -9.8520222483       10.1009444827       26.4748524885
  H        -9.4454485884        8.4629992436       26.3410729004
  H       -10.6918817907        9.2447298311       25.2666564715
  C        -4.1946943840       15.0501820550       38.9278683531
  N        -3.8011199878       16.3432559329       38.9689131238
  O        -2.8149126056       17.9752504804       37.6893268986
  S        -4.8307264946       14.2475866989       40.3288799005
  C        -3.8672659477       17.0873373194       40.1600872888
  H        -3.8900256734       18.1310781965       39.9082733241
  H        -4.8435017847       17.0317325870       40.6604666719
  C        -2.6489631924       16.7787193704       41.0575831828
  H        -2.4660079582       17.7028809347       41.6267703502
  H        -2.8968652043       16.1094098657       41.8455423715
  H        -1.6863829041       16.4553390545       40.5549225696
