352
i=
  H         4.5354670181        1.1413804935       12.7636444188
  C         3.9844058357        2.0979249622       12.8080542047
  H         4.7697936731        2.8464240174       12.8302054503
  C         3.0908339475        2.2012058012       11.6243953373
  C         3.0580336513        2.2258271432       13.9616116527
  C         3.8885507084        2.5414631882       10.4036248287
  H         2.3562534195        2.9287669239       11.8851194745
  H         2.6409607221        1.2835392615       11.4393706344
  H         2.3809321541        1.3839481715       14.0852189396
  H         2.5779801961        3.2182443916       13.8975339277
  H         3.5714630184        2.1906441168       14.9312888962
  C         4.4637152596        1.3250033715        9.7011403078
  H         3.1788998567        3.0482688406        9.7299268973
  H         4.6974749415        3.2164908322       10.6989298042
  C         5.0873958300        1.6239359034        8.3464118917
  H         3.6421341661        0.6259796828        9.5168685445
  H         5.1712029737        0.7899492937       10.3252156918
  C         6.4274930495        2.4029547648        8.4744836106
  H         4.3260418632        2.1219134761        7.7212887471
  H         5.2339441734        0.8423558508        7.6091629780
  C         7.6336829377        1.6036925222        8.9318514895
  H         6.7476987867        2.6707259819        7.4212169510
  H         6.2071556742        3.3818040142        9.0036300115
  C         8.8891247115        2.4114327208        9.2553567973
  H         7.8702496598        0.8055861638        8.2564554220
  H         7.3702968218        1.1336000580        9.8813408454
  C         8.6188370919        3.7682641336        9.9506817640
  C         9.3738436749        3.1566814874        7.9970857057
  C        10.0124412526        1.6091224481       10.0261030870
  C         8.7768014205        4.8857949493        9.1874089737
  C         8.0951090317        4.1171771161       11.2654410612
  C         9.2130223181        4.5214090048        7.9074213100
  C         9.7909408264        2.5556183974        6.8357419920
  H         9.5751069153        1.2454100340       10.9679060347
  H        10.3399650408        0.8435474722        9.3809946264
  C        11.1896095605        2.4792523052       10.4752782712
  S         8.2633613687        6.3209341647       10.0132033595
  C         7.9137190395        5.4670907506       11.4522434774
  H         7.8685746994        3.3031624908       11.9425475335
  C         9.4576364658        5.2291944574        6.7561971922
  H         9.8812434609        1.4840102748        6.8138586500
  C        10.0218516819        3.2149015336        5.6915134588
  H        10.9943527598        3.3228863829       11.1140119371
  H        11.4236814658        2.9742292045        9.5564131635
  C        12.3557153328        1.8018803914       11.1005509840
  C         7.5660328139        6.2027500651       12.7298340731
  C         9.9505883141        4.6045459764        5.6027707874
  H         9.1786205992        6.2879804076        6.7330813082
  C        10.4637570681        2.8830771635        4.4581754792
  H        12.9550078944        2.6566713359       11.2450593426
  H        12.8267072623        1.1386017693       10.4100475554
  C        12.0933776920        1.1581743201       12.4655931321
  C         7.7344062685        7.5648760431       12.9921259985
  C         6.9201462262        5.4747984028       13.8502585702
  C        10.4665087101        5.3119550814        4.3270239679
  C        10.6504871990        3.9762311624        3.6558861644
  S        10.8714985374        1.3886558468        3.7640163111
  H        11.3641518884        0.4096966785       12.3273559857
  H        13.0164864147        0.7128396497       12.8114740878
  C        11.6684848268        2.1601645833       13.5135415181
  N         8.2396497259        8.5119693454       12.0749345181
  C         7.5007692291        8.2250854173       14.1905074839
  C         6.7162290163        6.0407840169       15.1100050665
  H         6.4858441972        4.5107008931       13.5776631996
  C        11.8588029120        6.0101933793        4.6443046680
  C         9.4746450207        6.1212793735        3.6065805145
  C        11.0490325764        3.5325021236        2.4342130244
  C        11.2087987262        2.2037923382        2.2884928569
  H        10.6600479976        2.6205732524       13.3269054681
  H        12.4183084896        2.9382624125       13.5088376502
  C        11.6695904949        1.6973634503       14.9566098075
  S         8.1119931778        9.9985802330       12.7098360920
  N         7.7114038251        9.5392245949       14.1561759606
  C         6.9856935431        7.5195035356       15.2818396866
  H         6.0005715293        5.5778041891       15.7959937881
  H        11.6202837768        6.8456363426        5.2428932028
  H        12.3311659214        6.2733043243        3.7268502744
  C        12.8665526452        5.1680937972        5.4229272060
  H         9.0421888357        6.8739320934        4.2320834937
  H        10.0055082525        6.6669364824        2.7308950178
  C         8.2308245778        5.4183474391        3.1515816258
  H        11.1382453083        4.3509826374        1.7254110732
  C        11.5326168096        1.4708129240        1.0447212476
  H        10.7120100148        1.7136898460       15.3525095765
  H        12.0786939354        0.7214770412       14.9934321570
  C        12.4996467828        2.5573586980       15.8427950011
  C         6.8323049439        8.2363198520       16.5601064393
  H        12.4270609463        4.8758803414        6.3158193735
  H        13.0165681023        4.2626776196        4.8827898642
  C        14.0836923573        6.0088760025        5.6537996908
  H         7.8032571940        4.8456006635        3.9377090612
  H         8.5760181941        4.7224344348        2.3811917456
  C         7.1877032933        6.3817973730        2.6906928270
  C        11.6516925976        0.0317930455        0.8572267137
  C        11.5879797905        2.3070533193       -0.2095590541
  H        12.0475468303        3.5412639005       15.9871119893
  H        13.4018865633        2.6533252305       15.3785011719
  C        12.4850772345        1.9437833488       17.1664688733
  H         7.1271855892        9.2920425176       16.4793934663
  C         6.6753691064        7.7999517379       17.8801928188
  H        13.7192848618        6.9529956503        6.0599915604
  H        14.5938016302        6.2648278303        4.7130786747
  C        15.0643683950        5.3090726477        6.6137251448
  H         6.8245367835        6.9935040420        3.5228259330
  H         7.6601272847        7.0727298222        1.9962684048
  C         6.1299371129        5.6742133048        1.9567619889
  N        11.4246132431       -0.9312407517        1.8841194736
  C        12.0277339791       -0.5269261194       -0.3755205627
  C        11.8874764517        1.6686478114       -1.4243243238
  H        11.5774023588        3.3650365006       -0.0921721391
  H        12.1016485115        0.8203794470       17.2104896742
  H        11.8237470709        2.5308063071       17.8742029080
  H        13.4796571213        2.0780447960       17.6073721378
  S         6.3841556439        6.2163127082       18.4477397385
  C         6.6553277127        8.8668306820       18.9184886195
  H        14.8659359431        5.5754266414        7.6693344101
  H        14.8324285318        4.1814394625        6.6311522517
  C        16.4554279281        5.3808492061        6.0836155329
  H         6.2727952188        4.6205147467        1.7284762945
  H         6.1711773083        6.2842576206        1.0016022346
  C         4.7186582969        5.8853529388        2.6108495997
  S        11.5370554340       -2.3954755074        1.2328054952
  N        12.0502573577       -1.9349374961       -0.3059889529
  C        12.1279672907        0.2393151821       -1.5197424002
  H        12.1515313444        2.2868881665       -2.2533031535
  C         6.1526038727        6.9438486638       20.0192736040
  N         6.3410342139        8.3075606119       20.1231822919
  O         6.8473070205       10.0614065911       18.6427354469
  H        16.4011277193        4.8423814082        5.0825352160
  H        16.6473087549        6.4253646133        5.8582578850
  C        17.4984977615        4.7599856890        7.0146127786
  H         4.0687604948        5.2321258058        2.0153516094
  H         4.7986502342        5.5420519124        3.5515919943
  C         4.0856011486        7.3072772268        2.6996086361
  C        12.4796250204       -0.4703166768       -2.6852750510
  S         5.7995216289        6.0559889427       21.4888886106
  C         6.4256002116        9.0982467301       21.3695033703
  H        17.0382502388        4.6466811413        7.9801383208
  H        17.6960272111        3.7900093550        6.7199224861
  C        18.7901501553        5.6313288069        6.9466765948
  H         4.5753047893        7.8736210406        3.4731716020
  H         3.0774061103        7.3045120799        2.9530894675
  C         4.4158670262        8.0072831763        1.3868090229
  H        12.2783051307       -1.4944896732       -2.6328685023
  C        13.0508201374       -0.1252879106       -3.8735248328
  H         5.6333235443        8.8286513574       22.1113812644
  H         6.2684681417       10.1967553970       21.2103088230
  C         7.8564175524        9.0312213899       22.0012306587
  H        19.2464199696        5.4957963737        7.9423637141
  H        18.4513247434        6.7070506721        6.8436833430
  C        19.7105923523        5.0857872297        5.7889861125
  H         5.4818453464        8.2652277340        1.4482781709
  H         4.3815032963        7.3045148853        0.5456240189
  C         3.5292490586        9.2387457137        1.3469103487
  S        13.3941822489        1.4497671534       -4.3811547514
  C        13.3396448637       -1.2640436206       -4.8104035840
  H         8.0858026921        8.0647289242       22.2202270190
  H         7.7630532263        9.5269060743       22.9732147254
  H         8.6132225417        9.3799840542       21.2646571173
  H        19.1695428404        4.8858514756        4.8549493084
  H        20.4986389351        5.7278899541        5.4785514867
  H        20.2187578310        4.1393280971        5.9702889932
  H         3.5353466709        9.7880105101        2.3073170409
  H         3.8769333868        9.8688080841        0.5716900554
  H         2.4746283285        9.1057942300        1.1235844534
  C        13.8913822296        0.6201025250       -5.9326121022
  N        13.8350767145       -0.7331051739       -5.9604395380
  O        13.2525483891       -2.4406494917       -4.4905121160
  S        14.6290172876        1.2851425919       -7.3791330591
  C        14.1429274087       -1.5233363694       -7.1370684288
  H        14.2288594061       -2.4917609338       -6.7076089084
  H        15.1429884866       -1.4143886740       -7.5104196147
  C        13.1097073513       -1.5782786808       -8.2315422944
  H        12.1526900424       -1.6548146184       -7.7106540082
  H        13.0770074024       -2.4918502014       -8.9132147076
  H        13.1171642547       -0.6897429036       -8.9194105365
  H        -2.8305748461       15.1671064172       16.6025112980
  C        -2.7114063599       14.1013419879       16.5456792736
  H        -3.5740943755       13.5977667984       17.0212986710
  C        -1.4953748227       13.5257540830       17.3339438427
  C        -2.6619050032       13.8152603163       15.0349643773
  C        -1.4529228841       14.0567115120       18.7590679114
  H        -1.2789395778       12.4457424952       17.2580316584
  H        -0.6169487203       14.0381320810       16.9094273604
  H        -2.3331680595       12.7370371420       14.8835558019
  H        -3.6492702977       14.0919431354       14.6822839464
  H        -1.9602791633       14.5008262457       14.6086449842
  C        -1.9796519750       13.0181052900       19.8243231640
  H        -2.0812301604       14.8946614038       18.7897721283
  H        -0.5003664360       14.3811166305       19.0621670170
  C        -2.1630576288       13.5430803332       21.3028936103
  H        -2.9664602172       12.7458263096       19.4823823240
  H        -1.2813822814       12.1196442167       19.8123493806
  C        -1.1744721090       13.0975176274       22.3312750688
  H        -3.1432572518       13.1886049865       21.5773940583
  H        -2.2038833254       14.6357063299       21.3645584288
  C         0.1770104271       13.8713890490       22.2168151275
  H        -1.5737441176       13.1916908674       23.3445437497
  H        -1.0001720922       12.0639523949       22.1316108257
  C         1.3641633179       13.1754306460       23.0031143986
  H         0.4482400770       13.9182359232       21.1436211320
  H         0.0504346175       14.8581887994       22.7096675687
  C         1.7754792984       11.8359310797       22.3529727592
  C         0.8823705579       12.5013862481       24.2667148464
  C         2.4723856709       14.1787821007       23.2521882499
  C         1.5944138205       10.7340582054       23.1808446324
  C         2.2823329927       11.3395153990       21.1094180026
  C         1.1142616041       11.1534827457       24.3845176338
  C         0.3680215397       13.1236505437       25.4062671688
  H         2.7967682900       14.5402102594       22.2953073404
  H         2.1552812144       15.0621491170       23.8738924422
  C         3.6635171661       13.4725769227       23.8956240279
  S         1.9642197407        9.1810173940       22.4651252993
  C         2.4151836911        9.9735156515       21.0445188163
  H         2.3906407526       12.0353138564       20.2944630864
  C         0.7827642384       10.5555159959       25.5619008213
  H         0.3234581784       14.2361110705       25.3350815321
  C         0.0334130774       12.4330492069       26.5534042613
  H         4.0080228814       12.5683562027       23.3855115711
  H         3.4025585503       13.1235146523       24.8441863648
  C         4.8777683132       14.3964299257       24.0949087377
  C         2.8530194606        9.2595779146       19.8020632980
  C         0.1445798166       11.0773696643       26.6485558785
  H         1.1395662019        9.5879030030       25.6010332599
  C        -0.3337893012       12.8856849603       27.8258780228
  H         5.5716153272       13.9772707221       24.8035048147
  H         4.5460142496       15.2709276702       24.5827210198
  C         5.7332549838       14.9613700187       22.8844791793
  C         2.8448967173        7.8682199941       19.6128613311
  C         3.2042885107       10.0523548685       18.6204862353
  C        -0.3007890177       10.4177340011       27.9394682746
  C        -0.5104886711       11.8105340974       28.6462927290
  S        -0.5962694607       14.3581935284       28.6462892804
  H         6.4429651793       15.7014880847       23.2889440985
  H         5.0951623721       15.4183238604       22.1203428789
  C         6.5359546197       13.7955120982       22.1459280512
  N         2.4444216459        6.9861167515       20.5456041716
  C         3.1727978147        7.2829968888       18.4500515490
  C         3.3490934299        9.4471606981       17.4014603586
  H         3.3008591243       11.1649816697       18.7359178562
  C         0.8717548505        9.7256201253       28.6266487994
  C        -1.5614879502        9.5017408930       27.7684952751
  C        -0.8658810048       12.1501970487       29.9771567311
  C        -1.0148078620       13.4870679155       30.0755355494
  H         7.5759789050       14.0177456631       22.2342760332
  H         6.4180514940       12.7894529417       22.6357089029
  C         6.1004199640       13.6650954906       20.7376678925
  S         2.7157010995        5.4825833652       19.9813637890
  N         2.9437835242        5.9189325503       18.4359906000
  C         3.4050750533        8.0173218350       17.2128001866
  H         3.4152906445       10.0527286468       16.5112566597
  H         1.2210603354        8.9663844601       27.9165607131
  H         0.5505055066        9.3170054462       29.5566705644
  C         2.0251820748       10.5828548405       29.0793313679
  H        -1.3779187448        8.7467709519       27.0568014111
  H        -1.6212520651        8.9550276855       28.7284338772
  C        -2.8523748362       10.3040376063       27.4890837995
  H        -1.0415503135       11.3631561077       30.6202195094
  C        -1.2466050879       14.1639230297       31.3903701173
  H         5.7985428817       14.5607591114       20.2909310535
  H         5.2764797897       12.9035678774       20.6941361586
  C         7.2609984813       13.1391690456       19.8722787427
  C         3.5243285135        7.3722552513       15.9532488319
  H         2.4400203257       11.1369509679       28.2759655026
  H         1.7687858324       11.3458234514       29.7448613735
  C         3.2491415914        9.7710609846       29.6208663307
  H        -2.7013951366       10.6829609916       26.5228212078
  H        -2.9724252487       11.1571292189       28.1340321059
  C        -4.1979721652        9.5263103689       27.4070101974
  C        -1.4047149621       15.6173849900       31.5428970956
  C        -1.5306959104       13.4318933917       32.6593448248
  H         8.1523721159       13.7340002394       20.1038675533
  H         7.5103108670       12.0946427670       20.1473942017
  C         6.9573399941       13.4011082324       18.3886466300
  H         3.3886524786        6.3619672745       16.0137250122
  C         3.7447650056        7.7574368622       14.7215795044
  H         3.8271690327        9.3374138108       28.7971828528
  H         2.9327313370        8.9226034049       30.2105588309
  C         4.0865075655       10.4942819094       30.7161672605
  H        -4.0646833829        8.7935061110       26.6306394655
  H        -4.4693871462        9.0340914577       28.3630222989
  C        -5.2632905970       10.5249908212       26.9489469177
  N        -1.1579395593       16.6315998020       30.5981370273
  C        -1.7341666454       16.2578435238       32.7370574240
  C        -1.9151137276       14.0704474402       33.8886073373
  H        -1.5346301347       12.3884764362       32.6189848445
  H         6.0276528828       12.9508630661       17.9306867802
  H         6.8174510274       14.4426125509       18.1897363085
  H         7.7735481647       13.0652679102       17.7573615059
  S         3.9244625964        9.3925862281       14.2158773732
  C         3.7168048359        6.7344381758       13.6534123010
  H         4.1177748624       11.5270622889       30.6343136552
  H         3.6004157972       10.1647675665       31.6230234893
  C         5.5088028671        9.8936195845       30.7754480152
  H        -4.8292286132       11.4724502954       26.6083951191
  H        -5.9116822289       10.7460045642       27.7696905451
  C        -6.0368391995        9.8327149392       25.8981345900
  S        -1.3116791353       18.1277198917       31.2583534968
  N        -1.7279579733       17.6285207608       32.7257965988
  C        -1.9906600255       15.5549077968       33.9905213450
  H        -2.0643191293       13.3608283938       34.6765628699
  C         4.1217249404        8.6749769727       12.5460550230
  N         3.9725168079        7.3105584089       12.4688185202
  O         3.4449229659        5.5719024162       13.8338026204
  H         6.1049813855       10.5292385576       31.4785886169
  H         5.8546837200        9.9479143549       29.7121696353
  C         5.6171591502        8.4297653259       31.3276888373
  H        -5.4574202526        9.7114217246       24.8824280095
  H        -6.2062877234        8.8987924647       26.4305798996
  C        -7.3139403694       10.5554412430       25.7392813070
  C        -2.1918516758       16.2854637300       35.1965511379
  S         4.7744372583        9.3276389125       11.0999742442
  C         4.0297707706        6.4539825115       11.2139006232
  H         6.2237233685        8.4950401232       32.2931808667
  H         4.6470234439        8.1005596189       31.5405140284
  C         6.3805065659        7.4645505725       30.3729646919
  H        -7.0518345709       11.5371345255       25.2342786062
  H        -7.8156928413       10.7992995219       26.6457794307
  C        -8.3943310998        9.8370792558       24.9197367579
  H        -1.7277727387       17.2343493409       35.2148436046
  C        -2.8100452762       15.9861947228       36.3320024978
  H         4.6228226886        6.9128614952       10.4509292461
  H         4.5414957567        5.4919044150       11.4261916386
  C         2.5537550751        6.2742986316       10.7105539084
  H         7.1883337645        8.0386289211       29.8833390758
  H         5.7706722318        7.0166842549       29.5979132756
  C         6.9317492181        6.2440944379       31.1903627980
  H        -8.6713211034       10.3839443990       23.9851314424
  H        -7.9885147382        8.8668952099       24.7346007174
  C        -9.6462078638        9.6891298454       25.8469638810
  S        -3.7791952799       14.6098514869       36.6730081117
  C        -2.7557862309       16.9802230662       37.4628454033
  H         2.5339142079        5.7298930811        9.7937653162
  H         1.9312720952        5.7346092137       11.4512063768
  H         2.0479075043        7.1838875642       10.5095988069
  H         6.4472840204        5.9274286981       32.0766268845
  H         7.8868887165        6.5846430940       31.5892996529
  H         7.0756131148        5.3273277181       30.5577007917
  H       -10.1037409167       10.6919529141       26.0528400077
  H        -9.4207850914        9.1583845064       26.8014798577
  H       -10.4122897658        9.0766661386       25.3992828151
  C        -4.0075910862       15.2556001956       38.3411633977
  N        -3.5407111171       16.5072664400       38.4557014878
  O        -2.1197087880       18.0452802207       37.5078350825
  S        -5.0896988599       14.6474675127       39.6240810004
  C        -3.7306378913       17.2989834123       39.6514800985
  H        -3.5124298711       18.4020367067       39.5625530852
  H        -4.7424245890       17.3274330629       39.9787716880
  C        -2.9021241941       16.6877427031       40.7949306557
  H        -2.1984713121       17.4310978508       41.2340005755
  H        -3.5102080936       16.3691288034       41.6859305315
  H        -2.2946920616       15.8315625545       40.4615642020
