352
i=
  H         4.4719337084        1.2200686746       12.6099807593
  C         4.0257582609        2.2491904492       12.8652913483
  H         4.8264514723        2.9764805795       13.1293754965
  C         2.9754704643        2.6017644875       11.8243010734
  C         3.1932174665        2.0785348542       14.1526541726
  C         3.6017989456        2.7861316842       10.4261508525
  H         2.4630475057        3.5137325744       12.1662714075
  H         2.2879961338        1.8241621842       11.6499707909
  H         3.0002731889        3.1369034537       14.4135091360
  H         3.7747771030        1.4892643928       14.8680038435
  H         2.2874224134        1.5841602986       13.8979032002
  C         4.3540063608        1.5917511467        9.8345395406
  H         2.8488986375        3.0215218097        9.7120211869
  H         4.2760959173        3.6965030006       10.3570953636
  C         4.8937681059        1.9179816256        8.3976496537
  H         3.6052380699        0.8311269561        9.7457267755
  H         5.1263740429        1.2376869464       10.4715014546
  C         6.2237333653        2.6161811132        8.4158942516
  H         4.2733075197        2.6044073420        7.9004387977
  H         5.0667294754        1.0207497018        7.8620381520
  C         7.4321675045        1.8036639445        8.7762707432
  H         6.4553515773        3.1185386912        7.4334245927
  H         6.0761802530        3.4130800379        9.1132459487
  C         8.7521602198        2.5334549373        9.0826163973
  H         7.5242591259        0.9369111928        8.1354973946
  H         6.9910962476        1.4283544779        9.7187041608
  C         8.5645242616        3.8986544564        9.7990329020
  C         9.2831862153        3.2235323389        7.8234741321
  C         9.8327628190        1.6463168176        9.8487890900
  C         8.8863858927        5.0220729101        8.9987781349
  C         8.0087990915        4.2699433156       11.0321178960
  C         9.4202020568        4.5752201382        7.7776182929
  C         9.8108887225        2.5049322584        6.7167785884
  H         9.3157164903        1.2606318010       10.7195186039
  H        10.0833725524        0.8259736068        9.1800675401
  C        11.2624196983        2.3359797059        9.9768477985
  S         8.3826114443        6.4945626235        9.7349887538
  C         7.8928900667        5.6541078651       11.1285738187
  H         7.6095095312        3.4843568043       11.6609863678
  C         9.9336869529        5.1922925659        6.6703978481
  H         9.8244831678        1.3920248077        6.7614023806
  C        10.1612432033        3.1272952695        5.5634035555
  H        11.1835781619        3.3765372288       10.2433058797
  H        11.7765263890        2.3055691489        8.9621358236
  C        12.0820817480        1.6377659493       11.1043400987
  C         7.4182783328        6.3432151472       12.3489394681
  C        10.2082071369        4.4941006687        5.4568335476
  H         9.8167883703        6.2720587551        6.5161478444
  C        10.6129300387        2.7338284267        4.3221701890
  H        12.9749922632        2.1956759118       11.1716614257
  H        12.2748898898        0.5973021988       10.7451735517
  C        11.4664187059        1.6082201140       12.5645376410
  C         7.3592702054        7.7536688397       12.5610983564
  C         6.9249889767        5.5110982990       13.4558197950
  C        10.7030334288        5.1549737908        4.1867867919
  C        10.9388336774        3.8145997550        3.4788355494
  S        10.9301449341        1.2596910154        3.5876397985
  H        11.1153262115        2.5890354700       12.8703365097
  H        10.6023010483        0.9751395090       12.6263209398
  C        12.4388928821        1.0815046837       13.6215078998
  N         7.8232931646        8.7024899043       11.7085411187
  C         6.9632661566        8.2616466203       13.7812050039
  C         6.4697563067        6.0809030113       14.6601071030
  H         6.8662623587        4.4785917123       13.3415467665
  C        11.9886972636        5.9165923940        4.3747891254
  C         9.6138137172        5.9459663351        3.5148777619
  C        11.3848064861        3.4283531523        2.1968406381
  C        11.3796374170        2.0170860142        2.1190053206
  H        13.3578037008        1.7133426690       13.6357062355
  H        12.7738481439        0.1418182596       13.3894391918
  C        11.8253436450        1.0858355799       14.9807445325
  S         7.6539234529       10.1704269876       12.4250978779
  N         7.0241941800        9.6943036307       13.8110020424
  C         6.5518211011        7.5106425026       14.9061814807
  H         6.0287533029        5.3888357493       15.3714307057
  H        11.8100092340        6.5077043749        5.3369486808
  H        12.2815495286        6.6387763875        3.5186294955
  C        13.2810785366        5.1894162091        4.7591666482
  H         9.4123756016        6.7382590225        4.2578531055
  H         9.9506544973        6.4250133309        2.6124805964
  C         8.3614831745        5.1503716096        3.1925101240
  H        11.5782276826        4.1758861830        1.4317297684
  C        11.8389581398        1.2290996191        0.9136398790
  H        11.0639471094        1.9268538650       15.1735263484
  H        11.2499645274        0.1510260082       15.0605682850
  C        13.0392128403        1.3299334859       15.9266105520
  C         6.3398017964        8.1588663184       16.1516606044
  H        13.0704935733        4.4402902601        5.5254308600
  H        13.4583237277        4.4803911015        3.9289979759
  C        14.5172195446        6.0775413139        5.0957315387
  H         7.8785302873        4.7126971895        4.0725588262
  H         8.5472979643        4.3674906577        2.4400142277
  C         7.3779163412        6.0953376005        2.5019070086
  C        11.9458938508       -0.1711002662        0.6902586564
  C        12.2057391279        2.0074410795       -0.3038280566
  H        13.5970648928        2.2142022736       15.5068749123
  H        13.6722168118        0.4266826184       15.8809812325
  C        12.6582381699        1.5595458023       17.3291336125
  H         6.3929713435        9.1838724942       16.0773389307
  C         6.2908651497        7.6451641845       17.4040735767
  H        14.3193822433        6.6197426542        5.9904242197
  H        14.7678251874        6.8053428441        4.3262613845
  C        15.6913884664        5.1621042631        5.2983414677
  H         6.9638251922        6.8295837633        3.2244846902
  H         7.9705173439        6.4778367396        1.6587636187
  C         6.1462568108        5.3441133743        2.0873818938
  N        11.5633706626       -1.1545101474        1.6354154311
  C        12.3720204072       -0.7497571843       -0.4614504926
  C        12.5181857436        1.4502235617       -1.5425667485
  H        12.0568018786        3.1367070113       -0.2472891808
  H        12.1344139267        2.5511737800       17.3197649324
  H        13.5825231180        1.4483456384       17.9500107283
  H        11.9315450131        0.8198880268       17.7277060655
  S         5.9099191142        6.0489594247       17.8727972559
  C         6.3089989178        8.6424467012       18.5183917728
  H        15.4529426129        4.2978569544        4.6578896710
  H        16.5866884817        5.6538386006        4.9686469947
  C        15.8099292930        4.7728187271        6.7585470772
  H         5.5162330409        5.1196849149        2.9718223727
  H         6.3921506226        4.3015843357        1.7905947038
  C         5.4530172606        6.0717348642        0.8962534139
  S        11.7671340718       -2.5845747828        1.0149555271
  N        12.3882683163       -2.1434212131       -0.3676352516
  C        12.7604202673       -0.0637169767       -1.6185269087
  H        12.7549347239        2.1684530554       -2.2969442280
  C         5.9636856506        6.6641755466       19.5556403309
  N         6.0124517637        8.0115695491       19.6347885417
  O         6.6593004661        9.8189907814       18.3331396240
  H        15.7258294422        5.6332317073        7.4088385555
  H        15.0824831078        4.0499636052        6.9800563455
  C        17.1675857572        4.2006476552        7.0638373431
  H         6.0179068651        6.3455056304        0.0308802677
  H         4.7144330564        5.3225494382        0.5869715792
  C         4.4299029007        7.1762902012        1.1434333564
  C        13.0615269779       -0.7784387397       -2.8575141370
  S         5.6507948022        5.7604259905       20.9836567155
  C         6.0631838897        8.6786975155       20.9522720103
  H        16.9548332513        3.5023817360        7.8787959425
  H        17.5457891992        3.5540045968        6.2428307017
  C        18.1971183599        5.3093318500        7.4758230932
  H         3.9126632657        6.9215832734        2.0508869598
  H         3.6462027968        7.0062042669        0.3296218544
  C         5.1367621687        8.5267494124        1.2139302465
  H        12.9139965675       -1.7975077893       -2.8034156642
  C        13.4980185434       -0.3341380967       -4.0557105257
  H         5.3137194469        8.1480873961       21.5498630785
  H         5.6596307260        9.7035327267       21.0160236380
  C         7.4124076540        8.7120494262       21.4513354759
  H        18.8019518635        4.9601719725        8.3327470479
  H        17.6830613136        6.1130275154        7.9081072147
  C        19.1061113805        5.8137281630        6.3698165653
  H         5.5920325366        8.6266924677        2.1954059392
  H         5.8914175613        8.4608524729        0.4886361610
  C         4.3033254833        9.7709932015        0.8300659316
  S        13.7393870150        1.3573455780       -4.5771590149
  C        13.6582971122       -1.3661080924       -5.1110756422
  H         8.1041459128        9.0014258979       20.6244052494
  H         7.5724563476        7.7167355230       21.8280875395
  H         7.5120443425        9.3672446469       22.3004761083
  H        18.7031368831        6.7035412241        5.9988039945
  H        20.0987457544        6.0318463977        6.8118508055
  H        19.1310940596        5.1456015138        5.5427371063
  H         3.2412598376        9.7058929878        1.0116121305
  H         4.6032264939       10.6523667189        1.3816157747
  H         4.4377658959       10.0591017250       -0.2382499357
  C        14.0871445575        0.6612369594       -6.1428846412
  N        14.0536494120       -0.7232515683       -6.2334290090
  O        13.3602786434       -2.5278619972       -5.0339669502
  S        14.9713962930        1.5452197627       -7.3539757753
  C        14.2804644550       -1.4512134421       -7.4992450915
  H        14.6625778100       -2.4423713288       -7.3502839550
  H        15.0405733689       -0.9377200381       -8.0829936473
  C        12.9904486734       -1.6126948238       -8.2765436821
  H        12.3948980592       -0.6644195464       -8.1225886227
  H        12.3916363636       -2.4900191675       -8.0452261311
  H        13.1147584147       -1.5259463745       -9.3344012314
  H        -3.8017308096       14.6497392174       16.4304919495
  C        -3.6433044435       13.5588167200       16.2193193784
  H        -4.5110897348       13.0966436366       16.5064781371
  C        -2.4889029911       12.9992429808       17.1364472303
  C        -3.2683726164       13.2793107219       14.7055795579
  C        -2.6150167060       13.5709141048       18.5636536308
  H        -2.4534475004       11.9620517180       17.2800446139
  H        -1.5407044010       13.1379696914       16.6715086338
  H        -2.2680336746       13.7453872741       14.5799724932
  H        -3.1420536688       12.2232910315       14.5076449769
  H        -3.9442460135       13.6999046930       13.9244965411
  C        -1.5415581273       13.0250052890       19.4692239028
  H        -3.5580524438       13.3081255129       18.9524300629
  H        -2.5711286719       14.6413044305       18.5917525122
  C        -2.1055147538       13.1546611289       20.8661028413
  H        -1.4152483584       11.9678892343       19.2570627720
  H        -0.7260388057       13.7361076094       19.3168951593
  C        -1.2277596832       12.5884286688       22.0034997034
  H        -3.0624796077       12.5981984699       20.9632478467
  H        -2.3399151696       14.2525870658       21.0454505613
  C        -0.0873153464       13.5182722999       22.2501915164
  H        -1.8627691758       12.6245763598       22.9007972147
  H        -0.9809197536       11.5785969997       21.8143205619
  C         1.1054679782       12.9331946929       23.1441804678
  H         0.3070985920       13.9410581954       21.3093808579
  H        -0.3981910993       14.3476794779       22.9076686017
  C         1.5397794969       11.6258695858       22.4707732165
  C         0.7780977272       12.2008256648       24.3737162729
  C         2.2685860835       13.9675713959       23.3581875249
  C         1.3936561547       10.5373190313       23.2435381909
  C         2.0893938083       11.2651160261       21.2014125784
  C         0.8490234020       10.8464116910       24.4797242975
  C         0.3087845655       12.8290183548       25.5147461023
  H         2.4274795627       14.6167477677       22.4933297465
  H         1.9914106672       14.6326488873       24.2173951368
  C         3.6727600804       13.3039793193       23.7703455061
  S         1.7797993672        9.0596019095       22.5699095668
  C         2.0487146794        9.8483769195       21.0930342605
  H         2.3018285649       12.0731925049       20.4608358940
  C         0.4313066918       10.2630708854       25.5969341137
  H         0.2626843114       13.8902090416       25.4713283858
  C         0.1164195060       12.2170524299       26.7044692409
  H         3.9026864618       12.4216324454       23.0724685814
  H         3.6496617763       12.7566192478       24.7285186182
  C         4.8549659532       14.1989616617       23.6912463991
  C         2.5311121065        9.1186979343       19.8878762499
  C         0.0409830592       10.8453479768       26.8090734929
  H         0.3100758525        9.1526833277       25.5700375991
  C        -0.3581644443       12.6012054057       27.9511136367
  H         5.6824167093       13.6622241953       24.1672532691
  H         4.6945656383       15.0683846071       24.3784766101
  C         5.3552240062       14.5699580468       22.2620986286
  C         2.4622653992        7.6904756740       19.6865931142
  C         2.7394978788        9.9317170485       18.6739676968
  C        -0.5015826117       10.1276422454       28.0325030041
  C        -0.7522639542       11.4859362872       28.7209293085
  S        -0.7693684399       14.0710700584       28.6706197296
  H         6.0811326088       15.2741915097       22.4051577555
  H         4.5821859591       14.9696284988       21.6111177332
  C         6.1045254057       13.3866852287       21.6590101986
  N         2.2054213487        6.6841695468       20.6408070539
  C         2.5174155014        7.1593022438       18.4233536719
  C         2.9923895149        9.3593664946       17.4319664141
  H         2.8415480628       10.9874497443       18.6736091957
  C         0.5966216834        9.3194478226       28.7365359829
  C        -1.7798690013        9.2704437480       27.7404061866
  C        -1.1302469363       11.8198595949       30.0581276113
  C        -1.1867901841       13.1992838046       30.1408631476
  H         7.1115842467       13.7590965544       21.4632163608
  H         6.2519957592       12.5447816231       22.3550459286
  C         5.4750857297       12.8370417316       20.3906532019
  S         1.9528985449        5.2618548254       19.8667062497
  N         2.3003977087        5.8058975825       18.3788349463
  C         2.8514093282        7.9051794294       17.2317361249
  H         3.1870198079       10.0448546564       16.5242284625
  H         1.1212093168        8.7255510483       27.9817326948
  H         0.1546609247        8.5549752478       29.4164978461
  C         1.6371526565       10.0967393257       29.4926503191
  H        -1.5804979896        8.4023125102       27.0492485527
  H        -2.2024803647        8.9514498701       28.6893338573
  C        -2.9106093249       10.0206613814       27.0752472306
  H        -1.4181570670       11.1036510989       30.8434995701
  C        -1.5067482102       14.0065900525       31.3707788399
  H         4.4615624993       13.1192649475       20.3908822973
  H         5.5073426172       11.7877015891       20.1975509761
  C         6.0147440230       13.5247310121       19.1024868329
  C         2.9755369413        7.3337818956       15.9452877613
  H         2.1070425320       10.8683794293       28.7971557773
  H         1.2464029781       10.3614512239       30.4384867030
  C         2.7436580211        9.0434951994       29.8005377133
  H        -2.5321620165       10.2600116574       26.0972800914
  H        -3.1361348683       11.0214439897       27.4203840911
  C        -4.1980101796        9.1592842159       27.0953394370
  C        -1.5858198037       15.3446723907       31.6047881105
  C        -1.7286014555       13.1743279220       32.5683506412
  H         5.3350025732       13.3511922967       18.2772426152
  H         5.9459429883       14.6591410953       19.1525678666
  C         7.4533847520       13.0689908157       18.6880910487
  H         2.7389364079        6.2559843065       15.8621376017
  C         3.3415654529        7.8789792253       14.6965849036
  H         3.2399052524        8.7355305457       28.8164861919
  H         2.2303099491        8.1520117923       30.2132033594
  C         3.9367304669        9.5886679134       30.5033216987
  H        -4.0075545595        8.2653939300       26.4929798150
  H        -4.4436066111        8.8136075283       28.0993154848
  C        -5.3984301979        9.9601135299       26.4935599716
  N        -1.1310597445       16.3152339784       30.7155454305
  C        -1.9826547049       15.9230633258       32.7899325771
  C        -2.0709386303       13.6922190558       33.7989617485
  H        -1.5059694675       12.1035320977       32.6054701412
  H         7.5675652692       13.0420212673       17.6113104701
  H         8.1761351110       13.7617745646       18.9594973703
  H         7.5244885871       12.0478536621       18.9528488939
  S         3.5300432596        9.5200324609       14.0971020837
  C         3.3572604217        6.8748228654       13.6292158332
  H         4.2630845134       10.5715976829       30.1033467532
  H         3.5776816636        9.7250689175       31.5250759107
  C         5.1329466941        8.6228562637       30.4752554606
  H        -5.0723565172       10.4619090428       25.5773247601
  H        -5.7441364728       10.6494213013       27.3224252598
  C        -6.5587475118        9.0812007381       25.9995050330
  S        -1.2046498720       17.7285718183       31.3369289083
  N        -1.9306218685       17.2948906973       32.7238548693
  C        -2.2373272055       15.1559794098       33.9742070193
  H        -2.0928544709       13.0279688260       34.6696741928
  C         3.6692595348        8.7386249090       12.5047692359
  N         3.7058865425        7.4266664632       12.4525341865
  O         3.3672798235        5.6700161095       13.8055270697
  H         5.9616823669        9.1142312486       30.7027737955
  H         5.2857620431        8.2235960337       29.5018968368
  C         4.9451773644        7.3939325942       31.3802409171
  H        -6.1337934558        8.4733849602       25.1749927514
  H        -6.9374025286        8.4983870969       26.8893088344
  C        -7.6807180636        9.9510531149       25.3481136885
  C        -2.6080671779       15.7937266828       35.1831094550
  S         4.1910022925        9.4703543790       11.0148693747
  C         3.5791854421        6.6079413766       11.2388166396
  H         5.1118829240        7.7906797733       32.3700082123
  H         3.8994787495        7.1183595511       31.4341939170
  C         5.8446556040        6.2097625816       31.0292766814
  H        -7.4807826008       10.0905760189       24.3328253811
  H        -7.6592500710       10.9287060773       25.7074732973
  C        -9.1242458845        9.4092935605       25.3600791560
  H        -2.4227471997       16.8019728274       35.0921158158
  C        -3.0709509409       15.3110777669       36.3839748107
  H         4.3030384628        6.8264248851       10.4685335992
  H         4.0219667889        5.6585102462       11.5198751135
  C         2.1651279202        6.4421681923       10.6832470803
  H         6.8229553586        6.5467699521       30.7104984341
  H         5.4877619166        5.7213453108       30.1493380421
  C         5.8251066788        5.3027846731       32.2568245034
  H        -9.7010313191        9.8629836300       24.5705079974
  H        -9.0499016876        8.3998438535       25.0088892285
  C        -9.7819818627        9.3455838252       26.6750885536
  S        -3.3416754736       13.6048759409       36.8344868864
  C        -3.4192312273       16.3040105223       37.4165262919
  H         2.0598224414        6.7115422864        9.6402406713
  H         2.0222225595        5.3347138482       10.6573825559
  H         1.3819260783        6.8970355341       11.2629332451
  H         6.0835444737        4.2536797931       32.0569826067
  H         4.8247669368        5.2490253782       32.7390435515
  H         6.4658956175        5.5866954558       33.1129766032
  H       -10.8400242624        9.2593921990       26.5986677109
  H        -9.6702682922       10.2468643084       27.2938286449
  H        -9.3918264059        8.5394342434       27.3408280559
  C        -3.7874940410       14.2456664946       38.3965445772
  N        -3.7525137388       15.6060380640       38.4968617167
  O        -3.2344329034       17.5689534097       37.3516353066
  S        -4.1644710497       13.3620204150       39.7857661078
  C        -3.9659657303       16.3439533578       39.7821228109
  H        -4.5009868419       17.2851101790       39.5698303985
  H        -4.6604983675       15.8316895832       40.4402018419
  C        -2.5847258990       16.4136725252       40.4979124229
  H        -1.8616078320       16.6970846627       39.7629457161
  H        -2.5326862363       17.1691068499       41.2923050934
  H        -2.2200414339       15.4137932464       40.8633212394
