352
i=
  H         4.3337291669        1.0170082313       12.7246052398
  C         3.7847470379        1.9576063109       12.7267121250
  H         4.5557015914        2.7604429885       12.8341410365
  C         2.8985864379        2.2442758878       11.4692684645
  C         2.9604747786        2.0698663689       14.0313029373
  C         3.6573285789        2.4261268634       10.1900930115
  H         2.3236078144        3.1281919124       11.7819558897
  H         2.2818711806        1.3805397524       11.3910641190
  H         2.2453300166        1.2161170523       14.1526461391
  H         2.5680884457        3.0614330315       14.2089516091
  H         3.6933216539        1.9438046382       14.8167782721
  C         4.4048550123        1.2304708484        9.6355359278
  H         3.0224199085        2.8929629888        9.3544444627
  H         4.4428397535        3.1439808550       10.2731036728
  C         5.1086825288        1.4899269893        8.2674251733
  H         3.8291523381        0.2958376602        9.5434691036
  H         5.2052712267        1.0997967592       10.4015646141
  C         6.4282008562        2.3047621761        8.4584516074
  H         4.4335144912        2.1665451981        7.7482903931
  H         5.3084781646        0.6134009167        7.6438906301
  C         7.6914292212        1.5525991224        8.8690919615
  H         6.6311176700        2.8384346517        7.4725760204
  H         6.2549145180        3.0915267112        9.0928196482
  C         8.8750324592        2.4932235501        9.2196545997
  H         7.9770566527        0.7647069153        8.1804024893
  H         7.4158320224        1.0543533345        9.8577012482
  C         8.4099752512        3.8509662833        9.8674351736
  C         9.3744634412        3.2609321957        8.0594419810
  C         9.9906093573        1.8274866573       10.0070535634
  C         8.6872678087        4.9790678213        9.0809520437
  C         8.0391200666        4.2989199877       11.1362003273
  C         9.2915480686        4.6022802810        7.8526808685
  C         9.8641435968        2.6317154211        6.8940204936
  H         9.6307396914        1.6347810625       11.0673216611
  H        10.2960769058        0.9285536597        9.5179041777
  C        11.2737817682        2.6489982911       10.0355463780
  S         8.2913967547        6.5165225499        9.7274527568
  C         7.8168957179        5.6751551890       11.2602833336
  H         8.0879810472        3.6014330437       11.9480516784
  C         9.7031865174        5.2402785342        6.6900517684
  H        10.0956168476        1.5910381616        6.9033611156
  C        10.2591384238        3.2745740629        5.7041009172
  H        11.0633337606        3.6525051538       10.3845423875
  H        11.7993665040        2.6794364984        9.0754514728
  C        12.3251948893        1.9801562106       10.9163193026
  C         7.4560605129        6.3930156885       12.5039825388
  C        10.2630583848        4.5867647138        5.5485741545
  H         9.4797090174        6.2966838451        6.6187484339
  C        10.7213372166        2.8780784079        4.4522092415
  H        13.2526173646        2.4715254885       10.7810008382
  H        12.5704799012        1.0227746450       10.4834020104
  C        12.0267875585        2.0291480829       12.4216479430
  C         7.6398470833        7.7595913230       12.8425065463
  C         7.0608791699        5.5255282589       13.6462110749
  C        10.7402456970        5.2515447621        4.2442065054
  C        11.0187358833        3.8914618301        3.6101851899
  S        11.0128819731        1.3414536237        3.7615715112
  H        11.5872219106        2.9783322458       12.6537758847
  H        11.3065321104        1.1747047051       12.6407941297
  C        13.3215936476        1.8613184615       13.2503521018
  N         8.0682799617        8.6902280000       11.9316409880
  C         7.2937285924        8.2718783149       14.0546007032
  C         6.8746586959        6.0025254871       14.9166783876
  H         6.8276367891        4.4643930595       13.5783363616
  C        12.0597229601        6.0166273439        4.3613007454
  C         9.5957943538        6.1340504937        3.6143682468
  C        11.5839098501        3.5080541696        2.4451053155
  C        11.5427551614        2.1618833024        2.3694928911
  H        13.7466154106        2.8499282672       13.0442763999
  H        14.0283880677        1.1509554156       12.7712276143
  C        13.1550567985        1.4339191745       14.7064337763
  S         7.9041442675       10.1172539748       12.6646368228
  N         7.4081609041        9.5955924042       14.0852419026
  C         6.9354236999        7.4797791950       15.1645301706
  H         6.6030473389        5.3528840621       15.7213122116
  H        12.0069511069        6.8349521363        5.0923197146
  H        12.3501050865        6.4034421141        3.4008712685
  C        13.2024391576        5.2728878638        5.0094657181
  H         9.2817936393        6.9996434391        4.2244322214
  H         9.9446860571        6.6333028793        2.7082486219
  C         8.3417028071        5.2659094384        3.4072170010
  H        11.8222882792        4.2690582153        1.7258221890
  C        11.9867012795        1.4101746848        1.1706407516
  H        12.7004562830        0.5206239370       14.8526268676
  H        14.2477328565        1.4212766169       15.0641439160
  C        12.3328531715        2.5344370070       15.4769545545
  C         6.7943220579        8.1899999389       16.4103528972
  H        12.8574490866        4.7132775987        5.8506407780
  H        13.6778401682        4.6576161276        4.2896352228
  C        14.2559517286        6.1121895174        5.5197812028
  H         7.9152996404        4.8717326898        4.3481378533
  H         8.5798248175        4.4123940322        2.7693490147
  C         7.1667920291        6.0101589359        2.7841293869
  C        11.9848126580        0.0085701300        1.0074191312
  C        12.1135731720        2.1105164350       -0.1445134459
  H        11.2278213303        2.4884690365       15.4813148382
  H        12.5383500409        3.4394723299       14.8549241322
  C        12.9877529362        2.7634312887       16.8502718373
  H         6.9253704784        9.2586521450       16.4088445238
  C         6.3238956416        7.7160142800       17.6199740173
  H        13.7955140635        6.7192836271        6.3789274409
  H        14.5999781404        6.7642792246        4.7316930458
  C        15.4531323029        5.3208720175        5.7924740907
  H         6.8872790783        6.7952421059        3.5497996941
  H         7.4306527693        6.4822511928        1.8773725019
  C         5.9268927607        5.2060192487        2.6175645175
  N        11.6471783700       -0.9527046117        2.0141703144
  C        12.1782434569       -0.6330756032       -0.2190353308
  C        12.4616043684        1.5169952498       -1.3456940219
  H        11.9351254077        3.2186896783       -0.1629437887
  H        14.0203429044        2.8152268998       16.7625148983
  H        12.7595995467        2.0106290554       17.6176680804
  H        12.7533306915        3.7564989796       17.1677325491
  S         5.9277684174        6.1269216253       18.0082361643
  C         6.2140006962        8.7596253647       18.6988435394
  H        15.2830350509        4.5942856070        6.6053730208
  H        15.7519526854        4.7710635478        4.8998223175
  C        16.6711935658        6.1428625312        6.2060105141
  H         5.6349886182        4.9713663994        3.6180392065
  H         6.2351135649        4.2836037542        2.0045468598
  C         4.7454753326        5.8864596231        1.8383352606
  S        11.7701453658       -2.3712338025        1.3910709882
  N        12.1602821917       -2.0350775179       -0.1282200744
  C        12.5522320334        0.0396309672       -1.4273186300
  H        12.4918724192        2.1238108657       -2.2279744014
  C         5.8433939709        6.7833520670       19.7048902978
  N         5.7960668993        8.1224076818       19.8275904379
  O         6.4156422781        9.9365225150       18.5635146045
  H        17.2696101599        6.4841624479        5.3607977273
  H        16.4716413732        7.0507848562        6.7858268571
  C        17.5408840445        5.2089670995        7.0153818249
  H         5.0335982076        6.0449102482        0.8143514131
  H         3.9728006059        5.1215835230        1.7667088763
  C         4.1590190896        7.1527526781        2.4626650826
  C        12.8678079509       -0.6934715300       -2.6242569064
  S         5.4982053659        5.7494521016       21.1813783597
  C         5.8028631875        8.7619039741       21.1638629692
  H        16.9525549206        5.0092887317        7.8674611021
  H        17.7644929449        4.2867458344        6.4825338975
  C        18.9021967868        5.7965610541        7.4140921261
  H         4.8398721309        7.5929371658        3.1879135627
  H         3.2525661895        6.9516099440        2.9990681406
  C         3.8510034428        8.2102987898        1.3304229388
  H        13.0039088833       -1.7347631785       -2.4244338885
  C        13.3363839806       -0.3077225704       -3.8418006510
  H         5.0975735395        8.3363592908       21.8586585443
  H         5.2984996826        9.7314734590       20.9910013276
  C         7.1632828983        8.7970562080       21.8153180020
  H        19.2995320237        5.3147231800        8.2832336425
  H        18.6523170184        6.7711907365        7.7382125274
  C        19.9178952537        5.6505302280        6.2578399280
  H         4.4445036634        7.9718913585        0.4704715693
  H         2.8092120773        8.1819793794        0.9781744452
  C         4.2355391544        9.6418143806        1.6009735220
  S        13.8322042561        1.2883713115       -4.3509526410
  C        13.6678483007       -1.3823411194       -4.8522120882
  H         7.9278822098        8.4225152595       21.1656678203
  H         7.2336927209        8.2521090908       22.7506505424
  H         7.4725880327        9.8607352748       22.0256258636
  H        20.8890627046        6.0734889139        6.5544708879
  H        20.1044065296        4.7443527151        5.9212038305
  H        19.5923581513        6.1390438128        5.3451403655
  H         3.5312968323       10.3700972804        1.2496885025
  H         4.3786092926        9.8315408846        2.6546511775
  H         5.2699131323        9.7365870374        1.1984278427
  C        14.4066830855        0.5088479332       -5.8360510624
  N        14.3054918313       -0.8449810361       -5.9062717715
  O        13.1958223777       -2.5126821249       -4.8046144235
  S        15.2499201143        1.3605745437       -7.1510324079
  C        14.5117024945       -1.5298055135       -7.1487529235
  H        14.6772249545       -2.6234227145       -6.9485953715
  H        15.3699218276       -1.2668751956       -7.7851306834
  C        13.2731050237       -1.3896364202       -8.0192323937
  H        13.2903702415       -0.5814584624       -8.6685867767
  H        12.3345773522       -1.4578293929       -7.5435604425
  H        13.1986373322       -2.2599303713       -8.6842792014
  H        -2.7673763487       14.8980808894       16.3694917660
  C        -2.7468109544       13.8161235151       16.3262657343
  H        -3.7350361129       13.4605974947       16.1625613873
  C        -2.1072724935       13.2901690312       17.5777745532
  C        -1.9956291935       13.4063864907       15.1100664060
  C        -2.4861669352       14.0273848255       18.8526106345
  H        -2.2872897085       12.2058412813       17.6914581314
  H        -1.0618811362       13.4058950048       17.4434419346
  H        -1.8011054844       12.3859341032       15.3195285685
  H        -2.6458391757       13.4247956478       14.1679024060
  H        -1.0999912761       13.9388679999       14.9055084184
  C        -2.3003984889       13.0013745576       20.0055490122
  H        -3.5548915429       14.4049857622       18.8606440035
  H        -1.8379673162       14.9172658192       19.0024829853
  C        -2.5082970422       13.5467444907       21.4139095910
  H        -2.8823410210       12.0612672000       19.7462831586
  H        -1.2209248091       12.6758817919       19.8777344553
  C        -1.5619198817       12.8556787773       22.3924956539
  H        -3.5499916657       13.3195702733       21.6942946276
  H        -2.5022595765       14.5972481536       21.2657302418
  C        -0.3388778203       13.6701427284       22.5246104927
  H        -2.0215509003       12.5731557862       23.3227494414
  H        -1.3103637918       11.8574851132       21.8982569506
  C         0.9346558917       12.9711610445       23.1814369200
  H        -0.0777931085       14.0008520360       21.5125844464
  H        -0.4627768416       14.6087660467       23.0187374474
  C         1.2129158688       11.6357296487       22.4765735108
  C         0.5029155639       12.2497783810       24.4403195924
  C         2.1331568091       13.9456663093       23.3212047018
  C         1.0284116838       10.5648303556       23.3259756971
  C         1.6794099547       11.2481163634       21.1449774756
  C         0.5194815634       10.9025797831       24.5556200490
  C         0.0641963020       12.8425249368       25.6063311432
  H         2.2069683651       14.4863199100       22.3208408109
  H         2.0034686385       14.7190378747       24.0719345297
  C         3.4683120474       13.2214661886       23.6566202373
  S         1.5258125991        9.0521891999       22.5350819899
  C         1.9391101920        9.8999463817       21.1031023924
  H         1.9848935788       11.9602079497       20.4104051694
  C         0.1469220123       10.3034432407       25.7154677865
  H         0.0382577564       13.8891962211       25.6217036856
  C        -0.3441578715       12.2456631498       26.7512784504
  H         3.8828014950       12.6006311258       22.8913720453
  H         3.4883514510       12.5833351698       24.5283875423
  C         4.6279508503       14.2561336249       23.8290175887
  C         2.3621354011        9.1876087870       19.8724547407
  C        -0.3800016008       10.9106824520       26.8535166187
  H         0.4205511363        9.2893687275       25.6636194732
  C        -0.6434911627       12.6595002902       28.0578039280
  H         5.3490091611       13.8714265679       24.5043662435
  H         4.3239272587       15.0709252812       24.4590605394
  C         5.2010741901       14.7596449349       22.5188270211
  C         2.3819652783        7.8126003484       19.6461067139
  C         2.7182484489       10.0071119061       18.6703937601
  C        -0.8148554925       10.2733914715       28.1801995805
  C        -0.9370059629       11.6519169151       28.8858465150
  S        -0.8095128902       14.1789592553       28.7966644876
  H         5.5557451479       15.8209258792       22.5870977126
  H         4.4177930538       14.7987488889       21.7001141359
  C         6.3672957266       13.9424098993       21.9705689842
  N         2.0261940990        6.8779568892       20.6017952194
  C         2.6049775377        7.1927273481       18.4561540449
  C         2.9990160257        9.4314666208       17.4402656000
  H         2.9203047023       11.0989741457       18.8625482006
  C         0.3344172977        9.4917943720       28.7450780416
  C        -2.1880389043        9.5472547830       28.1398493257
  C        -1.3909102985       12.1021418855       30.1944088408
  C        -1.2948776573       13.4840324932       30.2956464378
  H         7.1292982933       14.6773360359       21.7072441150
  H         6.7703174008       13.4892214311       22.8786193610
  C         6.1488648646       12.8649585882       20.9579928314
  S         2.2152080951        5.3471543235       20.0261897024
  N         2.6879334885        5.7756783366       18.5321365777
  C         2.9661939332        7.9274624373       17.2786732209
  H         3.4491162424       10.0325867640       16.6750463125
  H         0.9433916972        9.0520694533       27.9486687112
  H         0.0992535102        8.6738847367       29.4354440019
  C         1.4587931162       10.3623518678       29.4282955243
  H        -1.8531869376        8.5531633384       27.7600657694
  H        -2.3875252654        9.4805364719       29.1403110717
  C        -3.2994635314       10.2035726416       27.3975146788
  H        -1.8444524552       11.4240007128       30.9172185286
  C        -1.4171049640       14.2888013582       31.5258077020
  H         5.1636039111       12.3832710092       20.9448056854
  H         6.8258401642       11.9988579061       21.0879825686
  C         6.2612441162       13.4153335843       19.5546149430
  C         3.2230077846        7.2224759039       16.0691316834
  H         1.6470234122       11.1997826540       28.7999565372
  H         1.0906717878       10.6848292743       30.4129169225
  C         2.6890980137        9.5610167601       29.8381074805
  H        -3.0659424779       10.6396501471       26.4267672663
  H        -3.5349141846       11.0919129512       28.0925485878
  C        -4.5612498802        9.3101027483       27.2569258019
  C        -1.4584510160       15.6768885664       31.6210492104
  C        -1.4818432579       13.5761248324       32.8048248040
  H         5.6877237432       12.8469057761       18.8614630133
  H         5.8648748864       14.4171287350       19.4736243912
  C         7.6594252035       13.4782349188       19.0663653528
  H         2.9804294711        6.1636193468       16.1019381860
  C         3.6283094631        7.7156206267       14.8638856040
  H         3.3228980944        9.1882822770       29.1115225678
  H         2.4586524540        8.5645586614       30.2987798724
  C         3.7555017568       10.3149779425       30.6402291847
  H        -4.2281841739        8.3872652548       26.8442668041
  H        -5.0306358070        8.9796513632       28.1452791998
  C        -5.5286730686       10.1003715698       26.3775647891
  N        -1.2530402075       16.5765867159       30.5840028476
  C        -1.6296088242       16.3618219170       32.7855898497
  C        -1.8089265462       14.2193906424       34.0041702365
  H        -1.2456889764       12.5383435254       32.7471811547
  H         7.7987073725       12.9513572237       18.1087244637
  H         8.0835664133       14.4934889816       18.9782866918
  H         8.2660135239       12.7788592727       19.6447469201
  S         3.9872961605        9.3841599424       14.4037639062
  C         3.6924250827        6.7210904992       13.7730440458
  H         3.9014518737       11.3308280675       30.3111814817
  H         3.3434369939       10.3692876408       31.6351380178
  C         5.1722809235        9.7440068759       30.5796221920
  H        -4.9679694604       10.3032016189       25.4702239934
  H        -5.6438118652       11.0801916968       26.8185656725
  C        -6.7919770618        9.4509788890       26.0780996498
  S        -1.3669833192       18.1022870117       31.1409251325
  N        -1.7024749019       17.7441011096       32.6626129726
  C        -1.9660142666       15.6965278571       33.9940082661
  H        -1.9105900123       13.6390002092       34.9160443679
  C         4.0660207590        8.7227460090       12.7632690328
  N         4.0462637486        7.3768701526       12.6147887131
  O         3.4958912151        5.5119748020       13.9024843722
  H         5.6520791307       10.5614844961       31.1972948775
  H         5.6504430227        9.7514067046       29.6311058519
  C         5.4697312481        8.4860228501       31.3286392206
  H        -6.6798404333        8.5338149132       25.5909598180
  H        -7.3563564674        9.2508518626       27.0285797752
  C        -7.6324380542       10.2063785813       25.0319533917
  C        -2.2469120808       16.5050581233       35.1086496356
  S         4.5019379667        9.6712166890       11.3988532270
  C         4.0873816925        6.6886078368       11.3037123977
  H         6.3572362782        8.6987331692       31.9227770114
  H         4.7231109315        8.2525194888       32.0334447384
  C         5.4802767961        7.1367398794       30.5274851829
  H        -7.1247901440       10.5306276363       24.1831606874
  H        -7.9993687922       11.1190949743       25.4683216960
  C        -8.8506095354        9.3750741245       24.7968508864
  H        -1.9301689312       17.5360151001       34.9607600028
  C        -2.7491897883       16.2204623872       36.3797172756
  H         4.6652703484        7.1698228043       10.5628238437
  H         4.6312834690        5.7358221490       11.4436229293
  C         2.7441566466        6.3018114891       10.8021958450
  H         4.6613781770        6.9507328331       29.8695670920
  H         5.5475068970        6.3656537367       31.3662187384
  C         6.6531534410        7.0773949759       29.4977690117
  H        -9.2860793276        9.7767359711       23.8168806228
  H        -8.5765115641        8.3116260905       24.7061722765
  C        -9.8745868342        9.5477944007       25.9130965489
  S        -3.2660319381       14.5963381620       36.9510522808
  C        -2.8498261931       17.3131976481       37.4359840965
  H         2.7539320227        5.4318481407       10.1428893159
  H         1.9237683548        6.2698613709       11.5824063124
  H         2.5054619392        7.0626102893       10.0683207685
  H         6.2942699563        7.0811043957       28.5385265985
  H         7.4187082283        6.2810479628       29.7603765779
  H         7.2397859343        7.9679916032       29.5768759243
  H        -9.6938367711        9.0524336519       26.8605201292
  H       -10.7598514070        9.0423192909       25.4636732606
  H       -10.2795769150       10.5436108006       25.9846563106
  C        -3.6050534116       15.4115618640       38.5063666939
  N        -3.4664476414       16.7644077391       38.4928413856
  O        -2.6041978334       18.4769945755       37.3052643969
  S        -4.3994739455       14.5908749298       39.8579493512
  C        -3.5589727169       17.5969701504       39.7272872476
  H        -3.7868575328       18.5732780425       39.4472744883
  H        -4.3462614186       17.1995155471       40.3458757899
  C        -2.2613785795       17.6763721964       40.4596950701
  H        -2.0880553568       16.7342551875       40.9475740291
  H        -1.4740461491       17.9997800206       39.8628068594
  H        -2.2587202840       18.4106899683       41.2456167232
