352
i=
  H         3.5182943270        4.0750459256       12.5840975198
  C         3.5622643625        2.9764645218       12.5082661894
  H         2.9563693063        2.6164435343       13.3277640913
  C         3.0148239865        2.5512754719       11.1389586204
  C         4.9625018274        2.5056658412       12.8747238502
  C         3.9289919722        2.7220426129        9.9601386612
  H         2.0479450943        3.0266980512       10.9851739556
  H         2.8025061664        1.4608580962       11.1387865613
  H         5.0210103524        2.2740884469       13.8897604748
  H         5.6732351718        3.3283267482       12.7234966434
  H         5.3212513656        1.6820541722       12.2304602060
  C         4.4720326302        1.5121880796        9.2565320764
  H         3.4221235719        3.1889035108        9.1220171884
  H         4.6294840682        3.4571120749       10.2805822225
  C         5.5677829135        1.8201015665        8.1399938088
  H         3.6415790121        1.0560585686        8.8196642369
  H         4.8895322330        0.8638286434        9.9784878104
  C         6.7776928882        2.6574669350        8.5748437973
  H         5.0410003815        2.3419939853        7.2996129275
  H         5.9072323787        0.8894865755        7.6956981192
  C         7.9401388991        1.9387597273        9.1940557777
  H         7.0858129695        3.1582597042        7.7428018727
  H         6.4810777574        3.5385890568        9.1874013248
  C         9.2256820178        2.8421239646        9.3089765083
  H         8.2459255080        1.1932469769        8.4813510903
  H         7.7356700237        1.3906326357       10.0900370868
  C         8.9032707174        4.2137895378        9.9180309151
  C         9.6652755326        3.4758746140        8.0195643297
  C        10.3734843654        2.1899692853       10.0646964422
  C         9.2755842724        5.2713795702        9.1603896025
  C         8.4455322034        4.6580486475       11.1541645020
  C         9.6422285981        4.8201263407        7.9016781432
  C        10.0783602196        2.7931035853        6.8816017063
  H         9.8541201875        1.9011255414       11.0146891126
  H        10.5644114583        1.2791629652        9.6015500597
  C        11.6978711887        3.0060564254       10.1911543241
  S         9.0604679224        6.8440236645        9.9395848093
  C         8.4567840600        6.0330487903       11.3611236172
  H         8.2230887493        3.8431634548       11.8892962235
  C        10.0198163321        5.3533210076        6.7264100513
  H        10.0312131182        1.7653268927        6.8802544232
  C        10.4247815677        3.4129858117        5.7028347370
  H        11.3967116077        3.9932315567       10.4009235900
  H        12.2161024533        3.0914757867        9.2544486947
  C        12.7654546910        2.4721782577       11.1801589708
  C         8.0400923743        6.7734502205       12.6100103162
  C        10.5051990200        4.7108868488        5.5783806254
  H        10.0506445935        6.4256973122        6.7318525260
  C        10.8697004784        2.9979367181        4.4712795009
  H        13.6927996914        3.0280275306       11.2209853407
  H        13.1046190717        1.4317454315       10.9072172840
  C        12.1648618191        2.3785572154       12.6175477018
  C         7.8306421316        8.1742019160       12.7774523576
  C         7.6675053854        5.9703597578       13.8046148072
  C        10.9244582665        5.3104179469        4.2869071671
  C        11.0806110925        4.0828329819        3.6266633669
  S        11.1101681522        1.4773024425        3.7466739751
  H        11.5687128955        3.2438921754       12.8984445454
  H        11.4958883728        1.5908892968       12.6281831007
  C        13.2478871126        2.2034431851       13.6761607092
  N         7.9392786692        9.1791548934       11.8116711170
  C         7.6137424342        8.7376264850       14.0628921385
  C         7.4731765626        6.5390959889       15.0238054154
  H         7.6633114702        4.9382101289       13.7862769687
  C        12.2573551896        6.1149092656        4.5528363970
  C         9.8252829998        6.1398062124        3.5595858619
  C        11.6361370121        3.6928011419        2.3492736179
  C        11.6179183667        2.3421471959        2.2694653743
  H        13.5442553557        3.2179962408       13.9363255663
  H        14.0904087336        1.7192412218       13.2826389700
  C        12.7234208894        1.5167854576       14.9607777393
  S         7.8423557864       10.6460731907       12.5161857565
  N         7.5038856604       10.1781485460       14.0235579001
  C         7.4110054500        7.9655309583       15.2583813310
  H         7.1261980535        5.8919875858       15.8039492667
  H        12.0848538793        7.0217294607        5.1666066899
  H        12.5679433297        6.5961585126        3.5968972025
  C        13.4294404180        5.2514586400        5.1111363428
  H         9.3031654198        6.6790109872        4.3563693659
  H        10.2486945106        6.8330442734        2.8357982578
  C         8.6841335049        5.3098283886        3.0075161977
  H        11.8672294433        4.3552697002        1.5455995316
  C        12.0896301536        1.5922163229        1.0985031880
  H        11.7003324911        1.8690512010       15.0554076686
  H        12.5678406905        0.4741675367       14.8799446830
  C        13.5485137375        1.8608504889       16.1649695354
  C         7.1921643183        8.5951907366       16.5375055609
  H        13.1764255583        4.7830313078        6.0765448585
  H        13.6342348198        4.4764583290        4.4397116358
  C        14.6371090241        6.1394943368        5.2949785609
  H         8.2700426188        4.7060217639        3.7843645098
  H         9.0311015437        4.6337333103        2.2548214862
  C         7.5058230051        6.1820848120        2.5502634831
  C        12.0772947077        0.1494453891        1.0054628132
  C        12.3457782473        2.2936689782       -0.2098504982
  H        14.3067382971        2.5443458377       15.8358055427
  H        14.1919179209        1.0621028348       16.5456682147
  C        12.8490925556        2.5900199578       17.3063640486
  H         7.2352745740        9.6347717387       16.4840041053
  C         6.8127561838        8.0013567654       17.7381225302
  H        14.3150755375        7.0048263340        5.9091289338
  H        14.9887477435        6.5995222158        4.3373471973
  C        15.7098396616        5.2555473824        5.9170019026
  H         7.0831595512        6.4932628252        3.5074424968
  H         7.9022651691        7.0888980008        2.0888235100
  C         6.4493472713        5.5027935380        1.7164497714
  N        11.6893401571       -0.7374657736        2.0258661343
  C        12.4314940765       -0.5505084660       -0.1757253768
  C        12.5801853773        1.5959647409       -1.4349246628
  H        12.2283067502        3.3547955548       -0.2281310385
  H        12.7690884091        3.6819800796       17.0828214745
  H        13.4098486110        2.5167694995       18.2225659743
  H        11.8005423635        2.1629676054       17.5465704926
  S         6.4767441367        6.3260398794       18.1079090602
  C         6.6689900002        8.9128567736       18.9253015348
  H        15.1954684065        4.7465681141        6.7398120375
  H        15.9370100860        4.3929513048        5.3017151450
  C        16.9363810501        6.0165631794        6.4358665234
  H         5.8893795192        4.8088008988        2.3458529384
  H         6.8884919441        4.7437918081        1.0718900227
  C         5.4337693795        6.4072498675        1.0779044410
  S        11.8145436881       -2.2508626842        1.5058645255
  N        12.3137685316       -1.9328207348       -0.0159258163
  C        12.6817466701        0.1161037038       -1.4136812350
  H        12.6533587175        2.2369748339       -2.2959438330
  C         6.0389305586        6.8783760514       19.7526919960
  N         6.2520544186        8.2009617281       19.9992839863
  O         6.9380670077       10.1329720224       18.9411048413
  H        17.4016353763        6.4694074877        5.5942672184
  H        16.5713668007        6.7656126135        7.1148119710
  C        17.9460485272        5.1591145432        7.2293087790
  H         5.9146192860        6.9527228323        0.2389940807
  H         4.6153487201        5.8078935942        0.6960953091
  C         4.7901646282        7.4005349434        2.0744215411
  C        12.8478612950       -0.7667327652       -2.5998077150
  S         5.8620991347        5.8698406117       21.1270596571
  C         6.2589728128        8.7538092912       21.3420532981
  H        17.6040061081        5.0526809475        8.1820495686
  H        18.0684470416        4.1218922439        6.7733819632
  C        19.3214543043        5.8080818875        7.2578184674
  H         5.5325958305        7.9308288958        2.5835141376
  H         4.2128860323        6.9098675562        2.8960058062
  C         3.7516873898        8.4186115554        1.3704738975
  H        12.4952602752       -1.7746426687       -2.4415177085
  C        13.4332210206       -0.5201897558       -3.8291780881
  H         5.4225754626        8.3556170422       21.9278273984
  H         5.9884642933        9.7906219454       21.4148011159
  C         7.6394251942        8.6185044306       21.9458060276
  H        19.8863386149        5.5905207704        8.1740570267
  H        19.1635830592        6.8364680522        7.1435353242
  C        20.2567607677        5.4070692673        6.1380266507
  H         3.6341206737        8.2027948708        0.2868371315
  H         2.7899514218        8.2185909501        1.7492547358
  C         4.0336552364        9.8979187780        1.6554626028
  S        14.1702793428        0.9503182879       -4.4252303691
  C        13.4185997993       -1.6627739140       -4.7236062578
  H         7.9661185363        9.4738040526       22.5301818628
  H         8.4183142395        8.3069109005       21.2336109373
  H         7.6723103307        7.7837646020       22.6140026288
  H        19.6909798479        5.2410321157        5.1934702142
  H        21.0171195562        6.1937622767        5.9657180946
  H        20.8137683399        4.5223684056        6.4165941244
  H         4.6483611413        9.8359537623        2.5669323588
  H         4.5989367026       10.4984905055        0.8908152436
  H         3.0990135179       10.4485182853        1.8905546784
  C        14.2850270266       -0.0287080234       -5.9400383854
  N        13.9936795784       -1.3206984273       -5.8147789853
  O        12.8337006811       -2.7254570526       -4.5304754114
  S        14.5945344930        0.6053770533       -7.5360951323
  C        14.0526078899       -2.3258778655       -6.8899483305
  H        14.2570277790       -3.2445698970       -6.3971624587
  H        14.9292378465       -2.2128432657       -7.5090860651
  C        12.6229497706       -2.5602077645       -7.5670062384
  H        11.9004883453       -1.9959511717       -6.9581865685
  H        12.3034578630       -3.6082560707       -7.5401880513
  H        12.5627590922       -2.1408428677       -8.5620862857
  H        -1.2096593341       14.8076545834       17.1484112916
  C        -2.2574109632       14.6496310230       16.9287776393
  H        -2.6208567240       15.6416531254       16.6064588514
  C        -2.9273725165       14.2238600859       18.3135277880
  C        -2.4978204120       13.8249240354       15.7228798604
  C        -2.1567426461       12.9840816518       18.7734346629
  H        -2.9106818689       15.0523477092       18.9158840053
  H        -3.9961625629       13.9523950159       18.2598690422
  H        -2.0378352514       12.8149990689       15.7247036640
  H        -3.5788937559       13.5842678851       15.6318170489
  H        -2.1728788884       14.2835650968       14.7912154764
  C        -1.2151479656       13.1807566488       19.9747367409
  H        -1.7184338106       12.4082341371       17.9479331095
  H        -2.9330752248       12.3148729630       19.1189945945
  C        -2.0010391759       13.4261728912       21.2608720351
  H        -0.5336185653       12.4009912760       20.1443835110
  H        -0.5677366041       14.0176920174       19.8755160302
  C        -1.2709284316       13.0790774323       22.5737303708
  H        -2.9684481804       12.9277781305       21.2070460168
  H        -2.3430465587       14.4021634513       21.4348458016
  C        -0.1058567291       14.0676660432       22.9109444211
  H        -1.9002797552       12.9764435826       23.4416169430
  H        -1.0019851832       12.0806398853       22.4665850659
  C         1.1325477921       13.2922329727       23.3989535925
  H         0.2046468596       14.7020301939       22.1345767229
  H        -0.4351804601       14.7608525038       23.6926853904
  C         1.4621848359       11.9829937386       22.6820410378
  C         0.7816587205       12.5667102350       24.6786569212
  C         2.4122439567       14.2027006547       23.5747879718
  C         1.4341242204       10.8864186169       23.5606956809
  C         1.7934849744       11.5918182478       21.3322313352
  C         0.9363842412       11.2511390456       24.8417610050
  C         0.2553028393       13.1897418237       25.8133261193
  H         2.4426623259       14.7856062475       22.6859602730
  H         2.2206042064       14.9086515316       24.3937069887
  C         3.7847085974       13.4714927912       23.8518195525
  S         1.9111653501        9.3816084607       22.9111486351
  C         2.1319715003       10.2442438269       21.3745862768
  H         1.7246237646       12.3707470049       20.5530590598
  C         0.6469629860       10.6641878251       26.0258177588
  H         0.1271766044       14.2625520190       25.9225509997
  C        -0.0576312294       12.5804269322       26.9728912728
  H         3.9938543051       12.7415047468       23.0626403469
  H         3.6915080816       12.9059251959       24.8161251807
  C         4.9339062245       14.4730344045       24.1080293177
  C         2.5838308323        9.4880305204       20.1322511908
  C         0.1174015859       11.2742930834       27.1359656870
  H         0.7359325010        9.5933727599       26.1436307957
  C        -0.5828617606       12.9769484315       28.2034644513
  H         5.7501712491       13.9003916082       24.5724378054
  H         4.7006411701       15.1614979338       24.8622611077
  C         5.4336204285       15.1337115395       22.8379001637
  C         2.7146536509        8.0968589992       19.9443730057
  C         3.0292362159       10.2866580844       18.9359198385
  C        -0.3601669959       10.5461788717       28.3785176499
  C        -0.5972154101       11.8947150257       29.0659216724
  S        -0.7559577430       14.5017493372       28.9749860375
  H         6.1707916732       15.9735433843       22.9250290076
  H         4.5515181932       15.4798231245       22.2283466570
  C         6.1667592456       14.0669993441       21.9964443012
  N         2.6063110205        7.1293066226       20.9098610384
  C         3.0128508881        7.5391353801       18.6912795619
  C         3.4752914537        9.7775475784       17.7369090337
  H         3.0620079511       11.3806322595       19.0796495126
  C         0.6418364441        9.6231014037       29.1858837514
  C        -1.7326945562        9.9126207593       27.9783658445
  C        -0.9835864445       12.2753595165       30.3568327560
  C        -1.0366486001       13.6655761991       30.4435590775
  H         7.2691941855       14.2992886042       21.9259996127
  H         6.2000430880       13.1242865324       22.5417769288
  C         5.4797532055       14.0445404570       20.6875517752
  S         2.6525844309        5.6216903891       20.1602419983
  N         2.9368134556        6.2038794410       18.6246563982
  C         3.4155787315        8.3478277038       17.5881470312
  H         3.8327370973       10.4401890560       16.9181658648
  H         1.0596025310        8.9312635244       28.5282130764
  H         0.3894693109        9.1373008145       30.1548892293
  C         1.7845202011       10.4040892396       29.6930630427
  H        -1.6075693385        9.4774372534       26.9616469508
  H        -1.9697085037        9.0261178867       28.5856380400
  C        -2.8730961200       10.9089173937       27.5975433971
  H        -1.0023447534       11.5303778020       31.1031246432
  C        -1.2309066645       14.3736721893       31.7302551208
  H         5.4942101809       15.0301456050       20.3903622764
  H         4.3757600759       13.7768069166       20.9375344956
  C         6.0305398413       13.0400597889       19.6897775457
  C         3.6788218947        7.6679509588       16.3661359132
  H         2.1366605128       11.0163996366       28.8736531205
  H         1.3766720573       10.9993199257       30.5344471741
  C         2.8546329763        9.4345307583       30.1629212791
  H        -2.4509121663       11.4231193412       26.7815707273
  H        -3.0986014734       11.8046389336       28.3334523978
  C        -4.2038626714       10.1861478349       27.2427105742
  C        -1.3673581920       15.8033345788       31.8860642123
  C        -1.3769134977       13.5685295360       32.9971546763
  H         6.0278074449       11.9888036211       19.9886636046
  H         5.4370135869       13.0079456609       18.8255639099
  C         7.3720737057       13.4925830628       19.1498322445
  H         3.2711074901        6.6351066032       16.3718543828
  C         4.0786738305        8.0714026509       15.0783976297
  H         3.1636028541        8.7470260787       29.3740754756
  H         2.4885437038        8.9184770541       31.0858771273
  C         4.1404804387       10.1102080086       30.7989095891
  H        -4.0039319889        9.2646446385       26.6602296679
  H        -4.6750783119       10.0063034497       28.2360284474
  C        -5.0757211813       11.1828302653       26.4099688659
  N        -1.3521893124       16.7202724300       30.8346468936
  C        -1.6624676742       16.4438882184       33.0728777376
  C        -1.6902524336       14.2248685630       34.1914786622
  H        -1.1693561284       12.4904414509       33.0227557315
  H         7.4038805909       14.5218818729       18.6920378146
  H         8.1149799561       13.5406267215       19.8913851338
  H         7.8064503448       12.8517966924       18.4178547320
  S         4.3736822145        9.6756454677       14.5043079581
  C         4.1285232362        7.0257904250       13.9794949070
  H         4.6162284086       10.9188516146       30.2511703156
  H         3.9629395859       10.4765935565       31.8147589563
  C         5.2760924436        9.0484053086       30.9579235795
  H        -4.3508351262       11.8760094192       26.0339998409
  H        -5.8192822640       11.7280618110       27.0552392286
  C        -5.8293798998       10.4239839810       25.3028927278
  S        -1.4138716837       18.1867612566       31.4981455287
  N        -1.8131871938       17.8320431978       32.9930937755
  C        -1.9101680494       15.6691491447       34.2990473243
  H        -1.9020892621       13.5644693914       35.0493634349
  C         4.3817084232        8.9631375088       12.9458326550
  N         4.4133117470        7.6314058764       12.8007509973
  O         4.0077042705        5.7944045010       14.1609410569
  H         6.1307170590        9.7136280734       31.3227920715
  H         5.5176555090        8.7224522559       29.9582608703
  C         4.9688076015        7.8011587421       31.8007874253
  H        -5.0356417820       10.0460169306       24.5745610103
  H        -6.3271367906        9.5393541736       25.6009584330
  C        -6.9032120641       11.1982249851       24.5460526267
  C        -2.1888146274       16.3254278373       35.5282398713
  S         4.7410400134        9.7536696969       11.4577150171
  C         4.6306449881        6.9148130921       11.5813042900
  H         4.2318309653        8.0146863404       32.5899772953
  H         4.4041231623        7.1012735137       31.1505922402
  C         6.2180931762        7.0964588681       32.3430414424
  H        -6.6426061882       11.4350289845       23.5348981091
  H        -6.8779118526       12.2868559505       24.8374685989
  C        -8.3073816709       10.6149910794       24.6916555470
  H        -2.1421792250       17.4256388422       35.5449735053
  C        -2.8974818873       15.8884013634       36.6236842142
  H         5.5445692444        7.1255853085       11.0065077717
  H         4.8457718197        5.8818210725       11.7440889273
  C         3.2953805779        6.9530089666       10.7244061766
  H         5.8819747665        6.3358761461       33.0538981413
  H         6.7949411224        7.7941990708       32.9881662034
  C         7.1193518511        6.3655902478       31.2425368311
  H        -8.9892384635       10.9740363367       23.8389320271
  H        -8.2749786702        9.4908274473       24.5629533791
  C        -8.8809878336       10.9250902255       26.0582933033
  S        -3.6163822792       14.3570394107       36.7443579228
  C        -3.1620515607       16.8706287174       37.7217193924
  H         2.9757949234        7.9401300686       10.4175987376
  H         3.3787870327        6.5001476642        9.8022449561
  H         2.4943671127        6.3949367245       11.2266777682
  H         6.7273620425        6.5085407386       30.2268768148
  H         7.1061623427        5.2813876657       31.2476413927
  H         8.1620287629        6.6296990425       31.2888762604
  H        -8.7416383096       12.0365079009       26.2510871695
  H        -8.4462941424       10.2628518788       26.7958317021
  H        -9.9418078659       10.7649646747       25.9876720299
  C        -4.1066337878       14.9323296405       38.3516249978
  N        -3.9226151500       16.2188138880       38.5986972875
  O        -2.6884294762       18.0258283343       37.8176841115
  S        -4.7049596895       13.8929794039       39.6333458043
  C        -4.1433473184       16.8660873748       39.7677924122
  H        -4.4596502387       17.8993209617       39.5710069099
  H        -5.0733529730       16.3803616513       40.1731955052
  C        -2.8276469561       16.7030559100       40.6861206233
  H        -2.8058379492       15.8840278543       41.3779770073
  H        -1.8801325611       16.7428364501       40.1805427716
  H        -2.7982748240       17.5140160993       41.3367077255
