352
i=
  H         4.0730391215        3.6462868200       12.8765705224
  C         3.1282032170        3.2136125884       12.5901613203
  H         2.5243991392        4.0736654256       12.2780842588
  C         3.4813171446        2.1137786665       11.5813074085
  C         2.4956478807        2.5562003705       13.8043102922
  C         4.2461619204        2.6678644271       10.4516160172
  H         2.5170471888        1.7383440829       11.2138535018
  H         4.0858726823        1.3811667200       12.1023662513
  H         2.5723439543        3.0916216547       14.7163187535
  H         3.0787517292        1.6801021819       13.8617849474
  H         1.4580570771        2.3596482044       13.6097223813
  C         4.9325032815        1.5668234663        9.6481442970
  H         3.5507796030        3.1612359286        9.7981697417
  H         4.9992242827        3.4566712477       10.6698124709
  C         5.6167854049        2.0259709289        8.4011367904
  H         4.0868144891        0.9011595441        9.4153115652
  H         5.6997861224        1.1218299341       10.3524322280
  C         6.9317518700        2.9225675185        8.6081804273
  H         4.9443504367        2.6814160710        7.8116489218
  H         5.8552712729        1.1898461324        7.7046650867
  C         8.1682426259        2.0963922800        8.9901022157
  H         7.0656774275        3.5970332737        7.7672617622
  H         6.7171638737        3.5402185007        9.4861236853
  C         9.4107468570        3.0903643713        9.2749192606
  H         8.3657007136        1.2687458003        8.2780450041
  H         7.9670833699        1.6197763353        9.9617946267
  C         8.9991510203        4.4015817688        9.8377640918
  C         9.9274316853        3.7177907798        8.0458381447
  C        10.5590515628        2.3763604638       10.0942052436
  C         9.4010254145        5.5027986207        9.1105822809
  C         8.4360246612        4.8140921302       11.0605765914
  C         9.9604666230        5.0603021630        7.9641796414
  C        10.4884223083        3.0672094358        6.9547884037
  H        10.1283970633        2.1253412500       11.0590045030
  H        10.7626983821        1.3600224943        9.6722348384
  C        11.8674536599        3.1165126677       10.2816939935
  S         8.9781145236        6.9943825773        9.7849097197
  C         8.5359372958        6.2177303521       11.2410250356
  H         7.9572596328        4.0961750629       11.6870330057
  C        10.4071978802        5.6350147068        6.8026444395
  H        10.4315638582        1.9845282911        6.9869773058
  C        10.9330342838        3.6636469690        5.7908457766
  H        11.6800419214        4.2447800928       10.4677363697
  H        12.4080396136        3.1204918417        9.3215728993
  C        12.7922125791        2.6138049298       11.3860401334
  C         8.0840792426        6.9047477532       12.4919656688
  C        10.9585511972        4.9967324405        5.6681515229
  H        10.4248089393        6.7121606990        6.7384288469
  C        11.3387636328        3.2637886273        4.5137387266
  H        13.7516833545        3.0990804679       11.2280078950
  H        12.8550270957        1.5445767670       11.3587154461
  C        12.4535508503        3.1622150519       12.7205075783
  C         8.1146054228        8.2899534154       12.6703609366
  C         7.6808048892        6.0080311287       13.6002158071
  C        11.4422933366        5.7486123881        4.4166166506
  C        11.7186792580        4.3538130882        3.6984554202
  S        11.4469317151        1.7324444868        3.6524506569
  H        13.0936123503        4.0041613213       12.9606418811
  H        11.4251407666        3.4073934344       12.8309044171
  C        12.7191539662        2.0516917255       13.7974644951
  N         8.3236811698        9.2092436850       11.6478677444
  C         7.9514346550        8.8408871211       13.8823672516
  C         7.3892639348        6.6490839441       14.7853220354
  H         7.6815171386        4.9657489104       13.6334299106
  C        12.8635745878        6.4613437891        4.5800438418
  C        10.3383995147        6.6584316365        3.7344954382
  C        12.0283864110        3.9635559673        2.3860099154
  C        12.0192317009        2.5937633251        2.2707976604
  H        13.5753646068        1.4901178183       13.5167306735
  H        11.8598217947        1.2893934164       13.7740884720
  C        12.8684746683        2.6100612664       15.2562748649
  S         8.3518345500       10.6719984395       12.3360391832
  N         8.0857868923       10.1920875541       13.9153105697
  C         7.5666898313        8.0951225980       15.0055395512
  H         7.3185368587        5.9929893472       15.6309901881
  H        12.5589979100        7.3550966189        5.1179167369
  H        13.2013188464        6.7531888982        3.6363693910
  C        13.8956134123        5.5971160860        5.3071120398
  H         9.9127746814        7.2764684142        4.4968433495
  H        10.8013827092        7.2966716345        2.9967310460
  C         9.1751876475        5.8506324063        3.1234863240
  H        12.3434115213        4.7485684815        1.6408877784
  C        12.3327782119        1.9057701330        1.0105512275
  H        13.8543657054        3.0464197164       15.2569921040
  H        12.1942628708        3.3579125333       15.5579309723
  C        12.9443977964        1.4331630385       16.2512327895
  C         7.2986945755        8.7581616329       16.2671170165
  H        13.5368681511        5.2962624284        6.2832975325
  H        14.0724049245        4.7204727808        4.7810890248
  C        15.2634803714        6.2648650341        5.2777862456
  H         8.7339876492        5.1538833086        3.8408398177
  H         9.5607748459        5.3780318041        2.3411315824
  C         8.1295800078        6.8033405043        2.5404430119
  C        12.3860907824        0.4700912538        0.8474656623
  C        12.3072242267        2.7010418437       -0.2747590044
  H        13.8241539302        0.9391846669       16.0849991681
  H        12.1508581469        0.6640986716       16.1268693483
  C        12.8409059399        1.9374749345       17.6844108877
  H         7.5319742898        9.7689089630       16.2720586188
  C         6.8989012492        8.2500423204       17.4928522331
  H        15.1668162301        7.3504518923        5.4134528211
  H        15.6934407366        6.2191394135        4.2248274523
  C        16.3116700195        5.5660090535        6.1219214409
  H         7.8709053070        7.6096795269        3.2463950515
  H         8.7095655999        7.2520463276        1.7309592079
  C         6.7625640630        6.2671452319        1.9828709209
  N        12.2937107182       -0.4925896004        1.8897348819
  C        12.4538378514       -0.1277015281       -0.4101581746
  C        12.4864923993        2.0582318816       -1.5111601446
  H        12.3466392867        3.7646505861       -0.2945066968
  H        13.0896713182        3.0495941628       17.7961188635
  H        13.4941748118        1.3821188418       18.2287319572
  H        11.8670535291        1.7734305276       18.1927405561
  S         6.5602350356        6.5772513295       17.9753192849
  C         7.0000879051        9.1827502820       18.6210593807
  H        16.0017561237        5.3267544478        7.1342904696
  H        16.5472122158        4.5706934653        5.6290153576
  C        17.5170799587        6.3745497593        6.4221352897
  H         6.3043564408        5.8573676119        2.8887806467
  H         6.9197521349        5.4389020189        1.2788199859
  C         5.8479164131        7.3388808157        1.4015446194
  S        12.2129018960       -1.9232321541        1.2232201970
  N        12.3745207962       -1.4997436826       -0.3433020756
  C        12.6391832050        0.6180814764       -1.5836476763
  H        12.5750519726        2.7297589301       -2.3559535235
  C         6.4339387629        7.2449444026       19.6620969642
  N         6.6445709126        8.5964237807       19.8242756857
  O         7.2309934385       10.3911140246       18.5528038181
  H        17.8891791110        6.8127502544        5.4954911225
  H        17.2553718721        7.2516238566        7.0826524139
  C        18.5722706851        5.6052289600        7.1953446706
  H         6.4520910286        8.1613639253        1.0397833072
  H         5.2341899172        6.8761288258        0.6576233507
  C         4.9828591828        7.9230154310        2.5308852695
  C        12.9442788652       -0.2138228412       -2.6854735100
  S         6.0753979862        6.3567366416       21.1537092684
  C         6.6261052666        9.3049778729       21.1286585425
  H        18.1470525856        5.3040324410        8.0700899897
  H        18.7610610345        4.6758237074        6.6606702899
  C        19.7672914053        6.4903417718        7.4758946087
  H         5.6493373859        8.4768413370        3.2045107163
  H         4.6446949789        7.0705101342        3.0771658926
  C         3.8575390052        8.8584921041        2.1487238718
  H        12.7391570989       -1.2556208602       -2.6204064666
  C        13.4599339789        0.1284364426       -3.8893102671
  H         5.7985056520        9.1819717662       21.8117861497
  H         6.3923998709       10.3449437703       20.8674328632
  C         8.0778509494        9.5381064913       21.7111415241
  H        20.5012934263        5.9040158271        8.0980907822
  H        19.4220082918        7.3127146698        8.0846213983
  C        20.4009813029        7.0183051796        6.1947276594
  H         3.4580073265        8.2829743155        1.3216742389
  H         3.0761782139        8.7740612238        2.8947858967
  C         4.3474419907       10.1787143371        1.7652628135
  S        14.0614471027        1.6917340043       -4.3916843523
  C        13.7615272819       -0.9880160668       -4.8751616834
  H         8.7805594119       10.0275906234       21.0823915572
  H         8.4184444414        8.5914815876       22.0664111351
  H         7.9975892318       10.2317491788       22.5850854829
  H        21.3928094182        7.4235992537        6.4133657097
  H        20.5547166574        6.1969129772        5.4713647334
  H        19.6408794609        7.7781316791        5.8612776256
  H         4.2998783621       10.7316135794        2.7022693670
  H         5.3848953067       10.1601865635        1.4191854013
  H         3.6570093008       10.7023071590        1.1151218810
  C        14.4394067361        0.9436691106       -5.9227677452
  N        14.3228798359       -0.3972920433       -5.9413979396
  O        13.3898665537       -2.1543046203       -4.8272819725
  S        15.3356848225        1.6749455408       -7.2649282248
  C        14.6037784886       -1.2017619417       -7.0558296343
  H        14.7345052983       -2.2128481496       -6.8227678421
  H        15.6321645614       -0.9280038224       -7.4624583831
  C        13.5375947548       -1.0626456042       -8.1831695003
  H        13.6035428881       -0.0489480146       -8.6316012763
  H        12.5416380574       -1.2115025028       -7.7816048540
  H        13.6139228222       -1.8495424820       -8.8900922225
  H        -2.3093409548       15.0417470827       16.3336008380
  C        -2.7594876544       14.0886179506       16.5128039464
  H        -3.6692162288       14.3764928168       17.0142238296
  C        -1.8081481349       13.4602344122       17.5238353952
  C        -2.7908058659       13.2642865343       15.2147066490
  C        -1.8868960404       13.9922461595       18.9436672441
  H        -1.8972992271       12.3918766995       17.5944699216
  H        -0.7951886574       13.4867088624       17.1157400595
  H        -2.3226583668       12.2268166507       15.2940970572
  H        -3.8442648665       13.1507387463       14.8867615682
  H        -2.2108004863       13.7530992116       14.3797763781
  C        -1.5728355507       12.9651586809       19.8837706788
  H        -2.8846617958       14.2846090533       19.1200400454
  H        -1.2104051224       14.8452345465       18.9881816095
  C        -1.7041516214       13.5193594239       21.3521381130
  H        -2.1921858170       12.0977245910       19.7773927708
  H        -0.5422688359       12.6316815086       19.5500707198
  C        -0.7765537639       12.8268946089       22.2076077209
  H        -2.7322844791       13.4778239070       21.6358509447
  H        -1.4236982933       14.5135722935       21.4405822827
  C         0.4184996212       13.6785305605       22.6453518650
  H        -1.3879065966       12.4776724613       23.0628034127
  H        -0.5218273215       11.8829978337       21.6577584001
  C         1.4563491820       12.8760303967       23.4146592666
  H         0.8722880359       14.2332868708       21.8098239540
  H         0.0128492628       14.4393255075       23.2208077949
  C         1.8304939335       11.5413272404       22.7598708208
  C         1.0126208043       12.1956164344       24.6413838025
  C         2.7327044519       13.7251990861       23.5415527188
  C         1.5346077384       10.4511717905       23.5247522630
  C         2.4095091485       11.1778274897       21.5303732971
  C         1.0487013946       10.8689261255       24.7348524766
  C         0.6193613982       12.8273426562       25.8179525892
  H         3.0672143908       13.9913822200       22.4951287751
  H         2.5418855052       14.6161199765       24.1164338019
  C         3.9096891617       12.9884635859       24.1316369534
  S         2.0470234227        8.9728196442       22.7793761903
  C         2.6405160810        9.8376292829       21.3773062398
  H         2.3646405895       11.9522600037       20.8093583643
  C         0.7497511371       10.1987979940       25.8731473993
  H         0.6777081062       13.8986520226       25.7654295101
  C         0.2198948045       12.1185041056       26.9551617569
  H         4.2166710045       12.1779549202       23.4254814293
  H         3.4982089108       12.5312043112       25.0393564514
  C         5.1696556451       13.8943741463       24.4476492493
  C         3.1423854823        9.2140520374       20.1237949582
  C         0.3186174662       10.7786439532       27.0368387124
  H         0.6339967868        9.0788947044       25.8757277275
  C        -0.2745153854       12.4234533251       28.1952106738
  H         6.0048533084       13.3913194275       24.8431346097
  H         4.7789788211       14.6549346819       25.1441397252
  C         5.6121106507       14.8002915943       23.2171878807
  C         3.0261776123        7.8185332464       19.8808852236
  C         3.5800018516       10.0484383404       19.0387199235
  C        -0.0050358607       10.0522697259       28.2851490616
  C        -0.3635069022       11.3463894667       28.9999030233
  S        -0.5797338104       13.9494643512       28.9807806296
  H         6.3312674661       15.5598252344       23.6402494237
  H         4.7893863211       15.3785216728       22.8526886344
  C         6.3982654758       14.0906711567       22.1464212775
  N         2.6122292502        6.7764582228       20.7407020552
  C         3.3158920648        7.2964174092       18.6030787822
  C         3.7864064045        9.5265474942       17.7512264306
  H         3.6597443325       11.0916782711       19.1507051298
  C         1.1693552368        9.2319287745       28.9324833833
  C        -1.3487147612        9.2464539646       28.1148656658
  C        -0.8167500700       11.7104461674       30.2853339824
  C        -0.9635296178       13.0527450880       30.4196294740
  H         7.2856636147       14.6089009269       21.8027328246
  H         6.7442545372       13.0538945289       22.5930273479
  C         5.5498369949       13.9102776400       20.8779580886
  S         2.7600588481        5.3468011933       20.0179444713
  N         3.1399340935        5.9170836965       18.5713300798
  C         3.5613899583        8.0890585079       17.5060988155
  H         4.1377918066       10.2585939549       16.9869876661
  H         1.5487307707        8.5931472187       28.1406870532
  H         0.9139978579        8.5264846611       29.7908555837
  C         2.3449607746       10.0825028224       29.4394781715
  H        -1.2085569934        8.6501593209       27.2377656546
  H        -1.4416018360        8.5226499453       28.9317489351
  C        -2.6980182918        9.9441014636       27.9007806090
  H        -0.8871836036       10.8862145015       30.9846269352
  C        -1.2644647050       13.7324922296       31.7013678062
  H         5.1378940389       14.7789266323       20.5154148776
  H         4.6405979152       13.4128176405       21.1476819098
  C         6.2346178709       13.1592972430       19.7356477505
  C         3.6415172907        7.4800336353       16.2082772434
  H         2.7178015649       10.6748898098       28.6275026158
  H         2.0109594820       10.8210299488       30.2306282151
  C         3.4013858495        9.2471946578       30.1216446124
  H        -2.5957828973       10.6472887367       27.1308515584
  H        -2.8463010432       10.5748426824       28.7821865910
  C        -3.7939991539        8.9137544929       27.7433514243
  C        -1.2675042787       15.1313906770       31.9428982794
  C        -1.6403199454       12.8777500995       32.8716898294
  H         7.3142665449       13.2823616341       19.7111368686
  H         6.1536609016       12.1284114211       19.9194482071
  C         5.6862510052       13.5560975157       18.3432110180
  H         3.7971030890        6.4300082243       16.1142538900
  C         3.9445389882        7.9244750535       14.9314318828
  H         3.6991827653        8.4383703993       29.4359131880
  H         3.0889050843        8.7462622578       31.0672533855
  C         4.6705108847       10.0443282598       30.4461537328
  H        -3.5147693628        8.3026820787       26.9113467815
  H        -3.7812898192        8.1825287585       28.5684507514
  C        -5.2577499616        9.3254448642       27.8083739862
  N        -0.9405449266       16.0517172959       30.9934261099
  C        -1.4953951278       15.6845111983       33.1527942482
  C        -1.9293354931       13.5167919989       34.1460421417
  H        -1.6042756033       11.7804017023       32.8414290713
  H         4.6517778443       13.1497803785       18.1048682776
  H         5.6406629759       14.6072133152       18.1183664216
  H         6.3915022534       13.2147782091       17.6209973069
  S         4.2200578362        9.4970091394       14.4345485962
  C         4.1323434562        6.7974503559       13.9071261360
  H         4.6228309325       10.7953706881       29.7076977966
  H         4.6334691547       10.5734196483       31.4203705779
  C         5.9534955365        9.3833244482       30.2234115443
  H        -5.4454905688        9.9017526145       28.7288838843
  H        -5.8854700158        8.4178477204       27.8758341608
  C        -5.5752497330       10.1104795013       26.5260943814
  S        -0.7897580000       17.5029169203       31.7104356681
  N        -1.2580781074       17.0595184943       33.1928935402
  C        -1.9783658801       14.9465592746       34.2494447660
  H        -2.2913166302       12.8871607026       34.9691281578
  C         4.5224150267        8.6792983038       12.8674952453
  N         4.6141449648        7.3591347520       12.8116253512
  O         4.0561755522        5.5589720209       14.1058665441
  H         6.7077976931       10.1247258227       30.5457455764
  H         6.2165878375        9.3336764992       29.1711619112
  C         6.1180393189        8.0400396102       30.8824427898
  H        -4.9706507082       11.0412657127       26.3481673141
  H        -5.3076979618        9.5546712096       25.5942954847
  C        -7.0320437231       10.5600523580       26.5377953526
  C        -2.2348351870       15.6968942213       35.4354863763
  S         4.8450246942        9.5862137245       11.3829877758
  C         4.7634085479        6.6331321926       11.5853894714
  H         6.4561656863        8.1089250945       31.9695666821
  H         5.1953370250        7.5753220191       30.9173694604
  C         7.0975913371        7.1678804652       30.0457651726
  H        -7.1647092228       11.5272073008       26.2539786945
  H        -7.4521076070       10.4970470319       27.5402856199
  C        -7.9028772502        9.6833622786       25.6500014779
  H        -1.8620605367       16.7694257901       35.4701990894
  C        -2.7691809836       15.3579004433       36.6853843265
  H         5.5023904975        6.9979034573       10.9055218449
  H         5.2127506766        5.6227794665       11.8547810921
  C         3.4631711503        6.5821194209       10.8106468671
  H         8.0647168643        7.5982157436       30.0192161212
  H         6.6273103105        7.0352590887       29.0359271626
  C         7.1621129871        5.7493857906       30.6741002950
  H        -7.6588918710        9.7721858452       24.6224910464
  H        -7.7251205292        8.6232076659       25.7964178505
  C        -9.3934163066        9.9391917680       25.9006286156
  S        -3.3382688638       13.8417970190       37.2790957053
  C        -2.7236726599       16.4830984086       37.7286861921
  H         3.5616645168        7.1788091519        9.8510408760
  H         3.1781646402        5.5609271555       10.4864058436
  H         2.6686189276        6.9985269783       11.3610268771
  H         7.5462887895        5.7632130060       31.6652240392
  H         7.8332876187        5.0276341892       30.1790829533
  H         6.1451605496        5.3340013314       30.8071214337
  H        -9.8170206241        8.9886248015       26.2831794483
  H        -9.9098290714       10.1566842338       24.9564491936
  H        -9.4377297547       10.7296441486       26.6078949299
  C        -3.7118671596       14.7650339073       38.7379238958
  N        -3.3257982868       16.0345215626       38.8188346493
  O        -2.1186622608       17.5359921471       37.5820484474
  S        -4.2528509753       13.9643793590       40.2584180089
  C        -3.5138762976       16.8476754433       40.0126632834
  H        -3.4645125525       17.9624622128       39.8569623112
  H        -4.5729568641       16.7338762128       40.3055120413
  C        -2.3817637117       16.3911596354       40.9966858101
  H        -1.6592360444       17.2171446817       40.8754325132
  H        -2.8043581244       16.3241483550       42.0112949107
  H        -1.9835495852       15.4100029261       40.8593552708
