352
i=
  H         4.5407750516        0.9988490916       12.2375799254
  C         3.9186755954        1.9511197223       12.3842421613
  H         4.5663749431        2.7553179816       12.5757525227
  C         2.8763117535        2.0929217708       11.2125454627
  C         3.0845837835        1.8816592451       13.6228756388
  C         3.5384325268        2.3987862891        9.8997315699
  H         2.4187725061        2.9576040261       11.3742836653
  H         2.2502107521        1.3014493738       11.2823331658
  H         3.0206592531        0.8992480992       13.9247126395
  H         2.0612495652        2.1270941081       13.4459379581
  H         3.5263277283        2.3641297600       14.4878705222
  C         4.4181355120        1.1468356189        9.3377114340
  H         2.8700421877        2.6540737547        9.0875463069
  H         4.3562226227        3.0115798201       10.1563705252
  C         5.1750764464        1.4961786149        7.9751476340
  H         3.6896800599        0.4129320161        9.2151183771
  H         5.0930808021        0.7849697892       10.1089160001
  C         6.2974945144        2.4724000163        8.0117587695
  H         4.5512307773        1.7148943276        7.0210120823
  H         5.6463074430        0.5857461941        7.6644260314
  C         7.6326459099        1.8533081560        8.5326871126
  H         6.4559521960        2.8928504651        6.9547210919
  H         6.0402162912        3.2762193672        8.5444942580
  C         8.7951390612        2.8880310411        8.7974001512
  H         7.9614418106        0.9937867570        7.9656355136
  H         7.4249099612        1.2577907806        9.4301740442
  C         8.3378672317        4.2081586007        9.3926091328
  C         9.1820238952        3.5185227659        7.4981182124
  C         9.9993237344        2.1982023420        9.5412020428
  C         8.5760582756        5.2837605813        8.5855739041
  C         7.7344691117        4.5316153171       10.6651531993
  C         9.1604829364        4.8442752199        7.3498018205
  C         9.8057421353        2.9237254567        6.4203189250
  H         9.5776064695        1.5915575831       10.3548098450
  H        10.4578338848        1.3520950032        8.9397181181
  C        11.0714140963        3.1024140113       10.0580932783
  S         8.2163656377        6.7824359184        9.3084044192
  C         7.7313090502        5.8843787916       10.7612521723
  H         7.5990546595        3.8084707176       11.3687538782
  C         9.7296240665        5.5116496048        6.3229288389
  H         9.9217272558        1.8389212939        6.4676952377
  C        10.1753566970        3.5574044820        5.2482961157
  H        10.6485969077        4.1123984960       10.4949594477
  H        11.7249763612        3.4180153989        9.2484224393
  C        12.1020175619        2.4650919635       11.0212160023
  C         7.2689435019        6.6060444387       11.9797165576
  C        10.2824345231        4.8928738190        5.1706172617
  H         9.9399340971        6.5892825401        6.1816308922
  C        10.6961660547        3.0747236265        4.0808465993
  H        12.8164550563        3.3758254941       11.1279450139
  H        12.6410159571        1.6717226167       10.5873391816
  C        11.4692866023        2.2532778713       12.4090882662
  C         7.4721429859        7.9886139648       12.2724094994
  C         6.8837926400        5.6851973961       13.1832096891
  C        10.8827826796        5.5983162080        3.9468898090
  C        11.1156455665        4.1496911463        3.3308134359
  S        11.0614575405        1.4957995503        3.3488725230
  H        10.7824614865        3.1350309550       12.4864173619
  H        10.8328789373        1.4168413527       12.5099515896
  C        12.4958641468        2.1216297416       13.4927720949
  N         7.7064796477        8.9638183644       11.3276220695
  C         7.3739871012        8.4480405749       13.5272660922
  C         6.6598311383        6.2829533489       14.4545418400
  H         6.6806789603        4.6059177698       13.0519471198
  C        12.2522220544        6.3598207441        4.1399735384
  C         9.6955949483        6.3812378640        3.2885152782
  C        11.4799857802        3.6695616187        2.0833930707
  C        11.4605188123        2.3282147210        1.9689197525
  H        13.2417337553        2.9471243961       13.5957003482
  H        12.9314216891        1.1013073335       13.4452728394
  C        11.8659884062        1.7255773935       14.8302333250
  S         7.7494152282       10.3747117930       12.1370579867
  N         7.5832358229        9.8899643304       13.6036918638
  C         6.9611131878        7.7433805808       14.6615061580
  H         6.3929684274        5.5103798588       15.1920413847
  H        12.1069455348        7.0838789358        4.9463777208
  H        12.4744500440        6.8582047693        3.1134298046
  C        13.4000117927        5.6180631658        4.6658871908
  H         9.3288384463        7.0541558101        4.0539196734
  H        10.2006939227        7.1044924225        2.7654071482
  C         8.7229879583        5.4623142506        2.5390769423
  H        11.7900916401        4.2851639573        1.2955857800
  C        11.7517794553        1.5774525275        0.6814957193
  H        11.0943295331        2.3263115737       15.2131559118
  H        11.2772401849        0.7148860244       14.7783989999
  C        13.0199259159        1.6578387816       15.8212502472
  C         6.8925577109        8.3995110041       15.9672112417
  H        13.2006103642        5.0083860609        5.5374710389
  H        13.8218634854        4.9177058536        3.9812559591
  C        14.6345444549        6.4932424189        4.8916696745
  H         8.3191660231        4.7059206366        3.2287171859
  H         9.1045233062        4.9523007697        1.6310371054
  C         7.7608770543        6.4045896837        1.9617628242
  C        11.7851375184        0.2388632939        0.5636734238
  C        12.0359401606        2.4177747764       -0.5739274740
  H        13.8770807004        2.1901247809       15.4534575022
  H        13.3419481266        0.6120047880       15.9070038031
  C        12.6720679262        2.1573127858       17.2261612446
  H         7.0449387471        9.4858832183       16.0006490790
  C         6.5167732729        7.9275587042       17.1742530383
  H        14.4289770149        6.9391937999        5.8566356330
  H        14.9281096436        7.1719964348        4.0528108470
  C        16.0483632827        5.8763998024        5.1344937756
  H         7.4389830739        7.0130147091        2.8877204800
  H         8.1711352238        7.1162019748        1.2831859534
  C         6.4969408811        5.7639878477        1.4217532476
  N        11.3692963148       -0.7696614104        1.5072514637
  C        11.9678798188       -0.3993266947       -0.6529281460
  C        12.3137558471        1.8024085297       -1.7559627101
  H        11.8773244912        3.5202284737       -0.6538725840
  H        11.8005106435        1.6433430635       17.5544277517
  H        12.5165655352        3.1742672887       17.3250835442
  H        13.5283115666        1.9916357678       17.8960646258
  S         6.1673082115        6.2812550642       17.6963192972
  C         6.4435779785        8.8932812713       18.3118400254
  H        16.3829241385        5.3483912089        4.2033902983
  H        16.7355631742        6.6460035209        5.2981822622
  C        16.0793820526        4.8957020800        6.3017935244
  H         5.7829899625        5.6532474287        2.2454054379
  H         6.6755496761        4.7644340642        1.0834351679
  C         5.7654269701        6.7092732972        0.5241993434
  S        11.5145240938       -2.2526723917        0.8377178198
  N        11.9356920446       -1.7551100488       -0.6639249247
  C        12.3557373837        0.3076744319       -1.8116671158
  H        12.3356862295        2.2422498405       -2.7384208734
  C         5.8904187264        6.9535985110       19.2965017466
  N         6.1847505326        8.2618551366       19.4435473610
  O         6.7303931385       10.0890224843       18.2463426169
  H        15.6815653691        5.4469330705        7.1549506313
  H        15.3776739913        4.1023602120        6.1610859344
  C        17.4610425992        4.3685212965        6.8714692131
  H         6.3858758755        6.9303722667       -0.3312640062
  H         4.8017077204        6.1967144693        0.1137991128
  C         5.3842389443        7.9459878959        1.1702667362
  C        12.6472161535       -0.4564072141       -2.9743498565
  S         5.5909522139        5.9704366644       20.7315685230
  C         6.3538970551        8.9651757667       20.7397406618
  H        17.3156504282        3.8017969646        7.8093673930
  H        17.8315227853        3.6688815835        6.1207546581
  C        18.5037528429        5.3828419093        7.0418556257
  H         6.2666474144        8.7180896745        0.8458163058
  H         5.2985560251        7.9023676955        2.1944162645
  C         4.0604593068        8.5209986275        0.5532536989
  H        12.6007647805       -1.5154110731       -2.9524772700
  C        13.0361773869       -0.0369373179       -4.2871548541
  H         5.6885685795        8.5397227178       21.5020093639
  H         5.9624696732        9.8875423755       20.6352126938
  C         7.8487731410        8.8988937442       21.2277059580
  H        18.8939088067        5.0182369456        8.0160544919
  H        18.0955693225        6.3133306578        7.3745138363
  C        19.5913738740        5.6069345272        6.0016262628
  H         4.1301233010        8.2526721144       -0.5229268817
  H         3.3115891169        7.9709741732        1.1280734449
  C         4.1014738759       10.0389195961        0.8939998053
  S        13.6322870518        1.5316838005       -4.7453862403
  C        13.1337791971       -1.0943736558       -5.4032076462
  H         8.2062907481        7.8728464469       21.4648838806
  H         7.8226254229        9.5425230616       22.0280226476
  H         8.6373618217        9.2281861059       20.4146241863
  H        19.2044556110        6.0711832629        5.1069028934
  H        20.4303965380        6.1331198216        6.4347595950
  H        19.9106133253        4.6569205022        5.7219882684
  H         4.3093736150       10.0414788857        1.9535587695
  H         4.9805591474       10.4157209504        0.4295018383
  H         3.2923039409       10.6434780305        0.4838953807
  C        14.0657372993        0.7583529747       -6.2998042328
  N        13.6918659244       -0.4760346476       -6.5110114592
  O        12.8665243534       -2.2587113839       -5.2437126865
  S        14.9357137953        1.6816778148       -7.5273647241
  C        14.2252602772       -1.3015118728       -7.6410112701
  H        15.1420479535       -1.7386053985       -7.2869788442
  H        14.3789959166       -0.5119791257       -8.4512381299
  C        13.1258101107       -2.2653876864       -8.1160245879
  H        13.1828358854       -3.1667389144       -7.6515744810
  H        13.4078918757       -2.2272459185       -9.1239116118
  H        12.3077445498       -1.6601991452       -8.2821952339
  H        -2.7075928175       15.3253216114       16.7544660260
  C        -2.9567283703       14.2946928553       16.5594489948
  H        -3.9869472647       14.1386375444       16.7168295350
  C        -2.2326811503       13.3970320808       17.5195595226
  C        -2.8065600967       13.8693985062       15.0602657320
  C        -2.7495766950       13.4989137669       18.9615813469
  H        -2.4798048691       12.4523055966       17.0453058816
  H        -1.1720906841       13.6213115007       17.5152170653
  H        -3.5934457296       13.2022170475       14.7726884242
  H        -2.8935592524       14.6572338012       14.3892712921
  H        -1.8350722916       13.3508817183       14.8752979041
  C        -1.9047084783       12.7660385047       19.9745835499
  H        -3.7095916341       12.8953592817       19.0235809909
  H        -2.7675565861       14.4868355123       19.2572244629
  C        -2.3307779647       13.1175279717       21.3412777531
  H        -2.1292405064       11.7877020277       19.6932933923
  H        -0.8408364175       12.7937172704       19.5580686461
  C        -1.2226209958       12.7261137503       22.5278566035
  H        -3.1724818450       12.4121018141       21.5725741109
  H        -2.8705010619       14.0196141005       21.5104452923
  C        -0.0124440532       13.5959566977       22.6690383092
  H        -1.7297375257       12.7462275695       23.5213833773
  H        -0.8807613015       11.6661470365       22.4116772693
  C         1.1509435377       12.8709553659       23.4733501236
  H         0.4910703546       14.0097766101       21.6922812509
  H        -0.3632012239       14.5217002108       23.2223085007
  C         1.5510390356       11.5352382109       22.8409586622
  C         0.6916251695       12.2098059500       24.7553243068
  C         2.3922271458       13.8554407186       23.6177860326
  C         1.2927100305       10.4213336186       23.6315893901
  C         2.1063463932       11.1455408640       21.7185936003
  C         0.6877296126       10.8965176688       24.8242456420
  C         0.0965025396       12.9078128280       25.8234252483
  H         2.6617231149       14.4006990481       22.7212547484
  H         2.0890781216       14.4406138173       24.4966026345
  C         3.6552187427       13.0618299236       24.2664969990
  S         1.7881984247        8.8545436268       22.9743219362
  C         2.2329466614        9.7691794154       21.5772213017
  H         2.2383723834       12.0001470994       21.0036114757
  C         0.2852444790       10.3277315028       25.9978570188
  H         0.0640214580       14.0153335613       25.7339917070
  C        -0.3549591001       12.3282148410       26.9724398789
  H         3.8413987436       12.2396701222       23.6842724088
  H         3.3316650035       12.4798096286       25.1538031600
  C         4.8946824772       13.9738464673       24.3678444578
  C         2.6669969794        8.9884912529       20.3644831253
  C        -0.2271320514       10.9914471280       27.1233136482
  H         0.4818641264        9.2694462831       26.0531256805
  C        -0.8392216507       12.7985258016       28.1240112874
  H         5.5616886980       13.6615791356       25.1977952607
  H         4.4713310889       14.8715572830       24.7957153536
  C         5.6288693311       14.1785684599       23.0242572126
  C         2.3880674572        7.6775692591       20.0603178340
  C         3.1055312808        9.8551449801       19.1653862235
  C        -0.8384842158       10.2971908583       28.3696834537
  C        -1.2189555727       11.7122842973       28.8838574136
  S        -1.0202555604       14.3131720388       28.9461832914
  H         6.2076943369       15.1013421297       23.0545642196
  H         4.8283036886       14.4747127047       22.2448080687
  C         6.2401438633       12.9771532079       22.3369741046
  N         1.9881043966        6.7117405547       20.9634037690
  C         2.5392396058        7.0556782487       18.8568054446
  C         3.1967700832        9.2513069160       17.8768063791
  H         3.3567531524       11.0080115991       19.3414540691
  C         0.3404084632        9.4625555459       28.9741116311
  C        -2.1250146471        9.4780063875       27.9794628214
  C        -1.6058653395       12.1759041387       30.1467276856
  C        -1.6346138879       13.5835386775       30.3292079574
  H         6.5386257831       12.2124889011       23.1083538456
  H         5.5023940483       12.4329081739       21.6670841487
  C         7.3331117078       13.1976145854       21.3718344385
  S         1.8531215491        5.3096182027       20.1809012624
  N         2.4935123059        5.6947296978       18.8019127040
  C         2.8645890802        7.7721829965       17.6686258651
  H         3.6304833620        9.7894220854       17.0095017164
  H         0.6434262672        8.7125557816       28.1497310723
  H         0.0633847871        8.9271702451       29.8505286029
  C         1.5704498823       10.2067722610       29.2642971160
  H        -1.9818044950        8.4846283028       27.5859992177
  H        -2.5853010271        9.2196146282       28.8916633194
  C        -3.1503532647       10.2246723255       27.2028964864
  H        -1.9348645947       11.3172143398       30.9396712218
  C        -1.9240874300       14.3715240979       31.6234881337
  H         7.8339319377       12.3375516517       21.1706482956
  H         8.0287747618       13.9672875626       21.6245928427
  C         6.7810853045       13.7554517521       20.0794503733
  C         3.1222270569        7.1006488154       16.4385331667
  H         2.1494740045       10.3729363371       28.3905482243
  H         1.4590626856       11.1773166841       29.8587042567
  C         2.6656192764        9.2247842150       29.8693329242
  H        -2.6998086697       10.6566993932       26.3533274584
  H        -3.4375324677       11.1130651059       27.8751470961
  C        -4.3669695861        9.3642016331       26.8653370991
  C        -1.8866591611       15.7427021373       31.8630183000
  C        -2.2338993521       13.4934083148       32.8091871550
  H         6.0408096611       13.2399007270       19.5665345283
  H         6.4177931338       14.8040307257       20.2517625921
  C         7.8658374545       13.8723054991       19.0367769930
  H         2.9776958774        6.0348118085       16.4191263478
  C         3.5297929720        7.4034060320       15.1936977965
  H         2.8488866873        8.5684198827       29.0158875079
  H         2.2800013639        8.5723725837       30.6011207304
  C         3.8167700077        9.9781337709       30.4671271717
  H        -3.9276820469        8.4305054301       26.3590469042
  H        -4.7620329417        8.9891789511       27.8558762280
  C        -5.3070803498       10.1532086368       26.0428861897
  N        -1.6377523680       16.7048494133       30.8957778128
  C        -2.1799235063       16.2467581692       33.1097269939
  C        -2.3485612270       14.0361576590       34.0680880253
  H        -2.0686060260       12.4276015339       32.7513390903
  H         8.6036171264       14.5534142692       19.5629704782
  H         8.3012338580       12.9140044775       18.7277515537
  H         7.4639913551       14.3008703270       18.1004018616
  S         3.9114717985        8.9601709408       14.6676929380
  C         3.3384579355        6.3774970948       14.1735948784
  H         3.8515910079       11.0252597093       30.2360484584
  H         3.7554631416        9.8961497914       31.5049420610
  C         5.1508810621        9.2026017744       30.2109925007
  H        -4.9319203835       10.5665902665       25.1406656530
  H        -5.7635264869       10.9905494331       26.6245415302
  C        -6.4680223215        9.2287908729       25.6044200102
  S        -1.7251346131       18.1521703048       31.6000565269
  N        -2.2800202303       17.6151603234       33.0564531144
  C        -2.5088870193       15.4939977651       34.2660030453
  H        -2.4576052301       13.3766721381       34.9610948229
  C         3.8654362606        8.1327881593       13.0136404538
  N         3.6363322307        6.7869433517       12.9328426369
  O         2.9698405752        5.1683370755       14.4283852229
  H         5.9392225427        9.9096834948       30.6278333613
  H         5.2082985182        9.0110958305       29.1998731301
  C         5.1829640469        7.8269195444       30.8324280497
  H        -6.0602817909        8.5243980461       24.9130007184
  H        -6.7115298678        8.7316099341       26.5159604784
  C        -7.5711973854       10.0726220320       24.9925090101
  C        -2.6759564554       16.1479354176       35.4797304166
  S         4.0362671712        8.9888441867       11.4998504887
  C         3.4224221899        5.9812561748       11.6772384249
  H         5.7817986765        7.8206673787       31.8246186599
  H         4.1500335835        7.5364783567       31.0148865898
  C         5.9457382216        6.9154276956       30.0005929669
  H        -7.5950604579        9.6001349490       23.9658201377
  H        -7.3885137212       11.1128529914       25.0217829801
  C        -8.9248610662        9.9223229139       25.6886883505
  H        -2.5259712070       17.1809852678       35.4422930890
  C        -2.9827835687       15.7482766130       36.7455876346
  H         3.9953114210        6.4984793873       10.9431451521
  H         3.7213265799        4.9817185084       11.8090944725
  C         1.9017900390        5.9643767039       11.2726254907
  H         6.8233102591        7.5226948319       29.5806344922
  H         5.2747334110        6.4357221387       29.1568180520
  C         6.5240406158        5.7349002842       30.7595127542
  H        -9.6650600801       10.4181564748       25.0010489180
  H        -9.3160596472        8.8809781760       25.7997128061
  C        -9.0512660090       10.4994285502       27.0079440921
  S        -3.4258754827       14.2512108628       37.3338353414
  C        -3.2151689679       16.8311087228       37.7659318917
  H         1.4385982164        6.9972872524       10.9987031017
  H         2.0685653315        5.4537609248       10.2888888944
  H         1.1679299989        5.3458641842       11.8357225266
  H         5.7299241481        5.2228646793       31.1748699795
  H         7.0917304613        6.0727579050       31.5934507842
  H         7.1457981522        5.0891760870       30.1664854831
  H        -8.1110415558       10.8347343885       27.5015960405
  H        -9.6296882983        9.9070674030       27.7426570314
  H        -9.4453422208       11.4940945801       26.9449056973
  C        -3.5351197454       14.9840123224       38.8821342922
  N        -3.5515905077       16.3286670981       38.8888435168
  O        -2.8973989172       17.9936073612       37.5466968711
  S        -4.2336788802       14.1478633952       40.2489645857
  C        -3.5106267289       17.2488867595       40.0914368858
  H        -3.7836834142       18.2345529828       39.8118245422
  H        -4.1932744292       16.8923138021       40.8165899976
  C        -2.1602312715       17.3072407936       40.6895863393
  H        -1.5355484469       18.0390641477       40.2401010552
  H        -2.3709288872       17.5860332849       41.7189856594
  H        -1.5444447040       16.4350297342       40.6358664010
