352
i=
  H         5.1476990462        2.6566654294       12.3216130289
  C         4.0761723101        2.7383356819       12.3712224235
  H         3.8512394709        3.7314746617       12.1995333448
  C         3.4986273646        1.9491492595       11.2489636050
  C         3.5632582458        2.2863958763       13.8101207716
  C         4.2792172556        2.1208934196        9.9144813252
  H         2.3769243707        2.1343426510       11.2546448088
  H         3.6270628036        0.8899331309       11.5424441661
  H         2.5992821336        2.5394908995       14.1728420181
  H         4.2186567294        2.8000666914       14.4945823808
  H         3.6054667430        1.2479569088       14.0252097597
  C         5.3939874943        1.0573836266        9.6925540208
  H         3.4685733499        1.9633064097        9.1261373768
  H         4.6399776023        3.1287519196        9.8603869935
  C         6.2692317139        1.3648939860        8.4801645876
  H         4.9432817287        0.0468965764        9.7161539100
  H         5.9496228409        1.0130665547       10.6354778029
  C         7.2618886165        2.4889928561        8.6179308496
  H         5.6687294809        1.6610755998        7.6405806450
  H         6.6451952071        0.4432890614        8.0021067770
  C         8.5724500505        1.9975029921        9.2615476438
  H         7.3025055252        2.8029492302        7.6088542537
  H         6.7371891204        3.3062569697        9.1135797417
  C         9.7078608799        3.0415340164        9.3247826867
  H         8.9111255157        1.2940132459        8.5292890276
  H         8.3918851379        1.4059006478       10.1884896892
  C         9.2681400733        4.4186906137        9.9019259036
  C        10.0032070135        3.6582941056        7.9371471270
  C        10.8813542540        2.4321466103       10.0402489406
  C         9.3984621087        5.4453089705        9.0217766455
  C         8.6936218944        4.7923214136       11.1058507971
  C         9.8070264529        5.0196362038        7.7560926245
  C        10.3678261816        3.0330583930        6.7559669043
  H        10.5335271807        2.1167897100       11.0136883094
  H        11.0998758083        1.5798487187        9.3604060088
  C        12.0177346223        3.4069008251       10.3107376401
  S         8.8559299541        6.9815023544        9.6911617591
  C         8.4825742728        6.1790398752       11.1697087746
  H         8.5183099619        4.0432612249       11.8572710045
  C         9.9902283873        5.5694169048        6.5409585986
  H        10.2895927926        1.9275224799        6.7540248313
  C        10.6699953094        3.6348351251        5.5578341368
  H        11.6694969021        4.3122982965       10.7868478652
  H        12.5130100130        3.7109627798        9.4447526910
  C        13.1346371484        2.8456805964       11.1692465735
  C         8.0464014949        6.8257257439       12.4521789725
  C        10.4969952045        4.9833078765        5.4138219529
  H         9.6269648209        6.5611698385        6.5221283471
  C        11.0115311118        3.2893787273        4.2656096210
  H        14.0576521945        3.3606202156       11.0048796464
  H        13.2500217232        1.8403848154       10.8367616278
  C        12.6549106276        2.8640997436       12.6380366136
  C         7.9023942840        8.1974481909       12.6889602715
  C         7.5551444485        5.9079827698       13.5557137154
  C        10.7853974258        5.6366546710        4.1667946916
  C        11.1855098685        4.3501777011        3.3872716263
  S        11.3771255687        1.8315625566        3.4996186847
  H        12.1620286001        3.7853742466       12.9743374136
  H        11.8876941378        2.1316343728       12.5992442301
  C        13.5219121899        2.3132643344       13.6828543676
  N         8.1882940237        9.2092579460       11.7380169779
  C         7.6144349453        8.6912915362       13.9416772153
  C         7.1408850966        6.4848263483       14.7287189888
  H         7.5157675261        4.8074189668       13.3794113316
  C        12.0918058117        6.5499208416        4.2898949459
  C         9.5581573501        6.3689867972        3.4734554894
  C        11.4644932155        3.9855897913        2.0902718948
  C        11.6697678015        2.6232308022        2.0496692041
  H        14.4832052814        2.8272722588       13.5616901139
  H        13.5800477858        1.2522855246       13.5697552237
  C        12.9586226001        2.5561602906       15.0415912303
  S         8.2304518502       10.6499411618       12.5639161087
  N         7.6849429386       10.0836668337       14.0057043515
  C         7.2707997767        7.8897730102       15.0655120303
  H         6.7991245796        5.8988634935       15.5490933421
  H        11.8039298626        7.4556070462        4.8237758461
  H        12.4702932986        6.7981861398        3.2473225486
  C        13.2885452592        5.8526823191        5.0062323333
  H         9.2616996487        7.1669815552        4.0826525137
  H         9.8561354110        6.9805920966        2.6553702269
  C         8.4944229294        5.4043760244        3.0845660163
  H        11.4629851817        4.7163888302        1.3000984397
  C        11.7946767482        1.8376137369        0.7885119463
  H        12.5401037751        3.5125916689       15.2760099849
  H        12.2349693665        1.8447268907       15.2437684297
  C        13.9901036193        2.3859476876       16.2020039773
  C         7.0165296884        8.5891891165       16.3080506869
  H        12.9767083200        5.5993151843        6.0295777679
  H        13.4896363207        4.8488761551        4.5116429185
  C        14.6119157440        6.6579132583        5.1195463339
  H         8.0029354909        4.9508002719        3.9918112413
  H         8.9502697133        4.6099971965        2.5051739722
  C         7.4751876025        6.2144614220        2.3196916635
  C        11.7747824159        0.4138520902        0.6866607237
  C        12.0763382366        2.6036147504       -0.4659785197
  H        14.8175488356        3.0439901954       15.9574160846
  H        14.2566416458        1.3773967999       16.2232427292
  C        13.3247588835        2.8088136036       17.5819540957
  H         7.3185280472        9.6259993064       16.3682797244
  C         6.6764669614        8.1330513882       17.5728566619
  H        14.5640744310        7.5260732598        5.7895480490
  H        14.8102138772        7.0606690367        4.1335037083
  C        15.7491109112        5.7178332454        5.4973007861
  H         7.3467626675        7.2096174715        2.7530063231
  H         7.7907623163        6.4334172975        1.3261087535
  C         6.1696004361        5.4620192336        2.3084335672
  N        11.5411259022       -0.4755105506        1.7796854739
  C        11.9672474453       -0.2423556577       -0.4970656756
  C        12.2649511776        1.8956429697       -1.6880505411
  H        12.2322836777        3.6285469122       -0.3621413345
  H        12.3796279422        2.2738825311       17.7170172543
  H        13.1277862842        3.7945686496       17.6620561291
  H        14.1902816628        2.5666860173       18.2969850698
  S         6.4034234009        6.4910804980       18.0953016396
  C         6.5201515443        9.1244359305       18.6135421160
  H        15.2633286763        4.8703475816        6.0513288238
  H        16.2789036417        5.3390775799        4.5980405670
  C        16.5835099854        6.3967955613        6.5749035675
  H         5.7376442912        5.4754796209        3.3363649539
  H         6.2530816250        4.4497208940        1.9266781091
  C         5.1269198531        6.1074299931        1.4234666136
  S        11.4342455310       -1.9698036595        1.2054519568
  N        11.9320249228       -1.6121567592       -0.3362426909
  C        12.2380751744        0.3886450781       -1.7238714103
  H        12.6882915457        2.4687898283       -2.5021919980
  C         6.0206322188        7.1288135663       19.6298818159
  N         6.1419005079        8.4503077053       19.7273168917
  O         6.6783548670       10.3856017085       18.5145596146
  H        17.1638199566        7.1813830096        6.1202037184
  H        15.8814294685        6.8225106997        7.2695230739
  C        17.6146418515        5.4062462802        7.0957131006
  H         5.5255736519        6.3558352109        0.4190929020
  H         4.3683785199        5.3674482172        1.1817132458
  C         4.6290744409        7.4934989878        1.9803189405
  C        12.5674090201       -0.3496876437       -2.9288570420
  S         5.6919648703        6.2756569776       21.0978332973
  C         5.9215003165        9.1817042580       20.9971339982
  H        17.0716864875        4.9692478948        7.9112031533
  H        17.6987584373        4.5744957333        6.4331963600
  C        18.8599335907        5.9785088824        7.5981213472
  H         5.2963095617        7.8345596929        2.7375687097
  H         3.6315269598        7.3225108420        2.3746904069
  C         4.6610728769        8.6757311212        0.9794277220
  H        12.4698489964       -1.4142909324       -2.9139212784
  C        13.0249530327        0.0427418127       -4.1962033490
  H         5.2004443611        8.6775733206       21.7232812127
  H         5.4615341602       10.1806223132       20.9644232990
  C         7.3116896409        9.3688974264       21.6638599024
  H        19.1814234306        5.4734071464        8.5233210577
  H        18.6831294368        7.0123767807        7.9027667298
  C        19.9931447512        5.9546656027        6.5884319931
  H         5.5725096461        8.6225915318        0.3864558710
  H         3.8643304410        8.5666009623        0.3250084862
  C         4.5457726094       10.0262439226        1.7309157336
  S        13.2862414066        1.5988678377       -4.7228745906
  C        13.1823734629       -1.0283953060       -5.2208493712
  H         8.0003244486        8.6778417775       21.2232496579
  H         7.2231720482        9.0972341506       22.6987586532
  H         7.6369280213       10.3941587930       21.4754358766
  H        20.4498543141        5.0811563757        6.3967019123
  H        19.5982493328        6.2311730120        5.6313167872
  H        20.7719857043        6.7082698361        6.7672436489
  H         5.5454437375       10.3617179085        2.0900688393
  H         4.1677556843       10.7027696138        0.9684178873
  H         4.0283376191        9.9583106905        2.7040277847
  C        13.8632245509        0.9309848896       -6.2212640731
  N        13.6768863309       -0.3854554431       -6.2998302516
  O        13.0594421959       -2.2062316874       -5.0573668463
  S        14.2653700295        1.8022980803       -7.7740606288
  C        14.0060275759       -1.2094847425       -7.4515094418
  H        14.4080818856       -2.1425394268       -7.1076356738
  H        14.8146454732       -0.7305441610       -8.0246434380
  C        12.7195323969       -1.3451489587       -8.3081081932
  H        12.8858111209       -1.9289301769       -9.1912742010
  H        12.3389392264       -0.3506060705       -8.6276875082
  H        12.0143844457       -1.8670528626       -7.7567186252
  H        -3.8432281015       14.8070743160       16.6377251753
  C        -3.4664182226       13.8115199126       16.4826073397
  H        -4.2690765108       13.1779225660       16.6083035263
  C        -2.3009513319       13.6308318934       17.4535809686
  C        -2.9557054753       13.6536187312       15.0585073961
  C        -2.7401001049       13.4529822677       18.8540704715
  H        -1.7643320147       12.7139809876       17.1322812076
  H        -1.6267115834       14.4573436801       17.3998507548
  H        -1.9957464738       13.2136046044       14.9829528339
  H        -3.6953542884       13.1089422791       14.4470557913
  H        -2.8916378568       14.6620130015       14.5321035763
  C        -1.5099734426       13.3645129468       19.7621988707
  H        -3.3236372107       12.5239248749       19.1445576355
  H        -3.3580415684       14.2247535296       19.2202378893
  C        -1.9241941931       13.4407582634       21.2444048942
  H        -0.8308403800       12.5182539246       19.5090452169
  H        -0.9258143698       14.1651907856       19.6129941407
  C        -0.9891923080       13.0254937978       22.3480139473
  H        -2.8609644442       12.8658903572       21.2863804868
  H        -2.3164426893       14.4478654665       21.3682762454
  C         0.1691808924       14.0088952056       22.5430010888
  H        -1.4500365522       12.9857178998       23.3400675460
  H        -0.6848053451       12.0741837039       22.1310763131
  C         1.3301725911       13.3804690406       23.3985836375
  H         0.5425607147       14.1041623326       21.5475664485
  H        -0.2239102012       14.9416299218       22.9552642821
  C         1.7154761024       12.0286845214       22.6593336826
  C         0.8865795020       12.6304422582       24.6294037939
  C         2.5268374269       14.2965546247       23.6625682405
  C         1.5223195999       10.8747212023       23.5149729430
  C         2.1389747507       11.6414628894       21.4033649691
  C         1.0093263113       11.2851533314       24.7121995378
  C         0.2406441177       13.1776036746       25.7255263857
  H         2.5910155982       14.8633050833       22.7255698579
  H         2.2387661200       14.9742021197       24.4960182948
  C         3.9106490222       13.6883848256       23.9994570280
  S         1.8903924865        9.3565057208       22.7567738764
  C         2.1340114352       10.2360304190       21.2567305377
  H         2.3225620540       12.3787302247       20.6657339225
  C         0.6089658421       10.5822521380       25.8619551655
  H         0.0809149746       14.2400711595       25.7907778411
  C        -0.0877072895       12.5370666986       26.8628738751
  H         4.1215896225       12.9336665191       23.2019921017
  H         3.9211046779       13.1195777650       24.9247369299
  C         5.0179740229       14.7855347623       24.0005904463
  C         2.4481182483        9.5157652169       19.9892523868
  C         0.0242963859       11.1984325686       26.9165924425
  H         0.7273026546        9.5573225401       25.8262855989
  C        -0.7236853834       12.9251547880       28.0419493994
  H         5.8891688605       14.6073455918       24.6503250587
  H         4.6402045094       15.6600839154       24.4083062102
  C         5.4144658560       15.0280312958       22.5604525608
  C         2.6229122547        8.1327712106       19.8464639909
  C         2.9093296580       10.3313297563       18.8660560913
  C        -0.3711799219       10.5225961447       28.1750323321
  C        -0.6767053285       11.8025543013       28.8680887077
  S        -1.3340772986       14.3512959557       28.7843710869
  H         5.7087737876       16.0464202693       22.4781634057
  H         4.5798309881       14.7179066182       21.9309649039
  C         6.6532122872       14.2363528309       22.1671635875
  N         2.4292853515        7.1635149091       20.8474406467
  C         2.9157962453        7.5434211634       18.6262072886
  C         3.1434688656        9.7518839593       17.6332403964
  H         3.0827995755       11.4087104823       18.9492623426
  C         0.8633059050        9.6297647194       28.7385601340
  C        -1.6622891288        9.7304853786       27.9861657347
  C        -1.0912709028       12.1528136279       30.1624335845
  C        -1.3291387182       13.5424222941       30.2906932914
  H         7.4785026315       14.8747438131       21.8827293067
  H         7.1231180499       13.7017081549       23.0529993009
  C         6.2657355856       13.2186159507       21.1491283495
  S         2.6338412750        5.6431741122       20.2006152677
  N         3.0332750455        6.1883364896       18.6985932637
  C         3.0959680176        8.2571735771       17.4888645769
  H         3.1183357416       10.4154578631       16.7528769003
  H         1.1954523069        8.8972310517       28.0278121574
  H         0.5244701110        8.9572960600       29.5549498193
  C         2.0711282171       10.4807837970       29.1940687859
  H        -1.5598314116        8.7547404795       27.5808372472
  H        -2.0728438270        9.6719610525       28.9577808754
  C        -2.8013606253       10.4417416322       27.2558408016
  H        -1.1730890712       11.4064979942       30.9517277337
  C        -1.7447024452       14.1938760575       31.6156040417
  H         5.3635941785       12.7056336055       21.2270553940
  H         7.0275142214       12.4159156986       21.2184711215
  C         6.3952346057       13.7425320234       19.6860668595
  C         3.3597902926        7.5587122869       16.2133550640
  H         2.4119452021       11.1175185782       28.4317736243
  H         1.6877097890       11.0677622523       30.0664918299
  C         3.1148043634        9.5487363631       29.8574893733
  H        -2.4613544309       10.6976962083       26.2450513340
  H        -3.2646612322       11.3060126335       27.7930292518
  C        -4.0414610052        9.5489677096       27.0658971203
  C        -1.8881742026       15.5893904893       31.7804732632
  C        -1.8827627520       13.3413965706       32.8211009837
  H         5.7322503227       13.1984461785       19.0591842232
  H         6.0079390286       14.7770918595       19.7840806712
  C         7.7872866800       13.5965121294       19.0860973186
  H         3.3531051678        6.5165736805       16.2690496662
  C         3.7743993811        8.0811295091       15.0228943151
  H         3.6497829208        8.8827213990       29.1763389079
  H         2.5933205394        8.7678098545       30.3097005074
  C         3.9946220117       10.0033022840       30.9384634329
  H        -3.8647833399        8.8858555996       26.2938438963
  H        -4.2993099538        9.1058288614       28.0114584590
  C        -5.2166982488       10.4508369100       26.6467167068
  N        -1.6368156395       16.5069578340       30.8300769516
  C        -2.2116969822       16.1135784850       33.0053100773
  C        -2.2286135664       13.9179815109       34.0421600254
  H        -1.6494232845       12.3213940163       32.7210148233
  H         8.5400296648       14.0432168416       19.6887872335
  H         7.9381960079       12.5487090682       18.9200839085
  H         7.8786347471       14.0721249670       18.1034853572
  S         4.1731937552        9.6843965720       14.5570215159
  C         3.8529389301        7.1495275720       13.8105081721
  H         3.8726986140       11.0809361051       31.2032551468
  H         3.7517888734        9.5037525125       31.8762493982
  C         5.4901260512        9.8740513501       30.6712475422
  H        -4.8929217161       11.1653578941       25.8933163646
  H        -5.6784794020       10.9678684860       27.4833680779
  C        -6.4319435566        9.6916897698       26.0165340413
  S        -1.8637064896       18.0075952974       31.3844762602
  N        -2.2625043308       17.5533797548       32.9318884957
  C        -2.4398977736       15.3828345865       34.2169518518
  H        -2.2914685142       13.2812173867       34.9543172108
  C         4.5033605379        9.0830505447       12.9386917978
  N         4.3736375230        7.7512565439       12.7650603470
  O         3.5865726278        5.9198015537       13.8086379973
  H         6.0196941118       10.5924662360       31.2371149058
  H         5.7413866572       10.1373108515       29.6432345174
  C         6.1660742162        8.4849247104       30.9300429010
  H        -6.1037369396        9.2212042004       25.1174553543
  H        -6.6989741193        8.8086133176       26.5955703522
  C        -7.5733624463       10.5958944199       25.8072228121
  C        -2.6354279323       16.1011477098       35.4329359405
  S         4.8274411926        9.9390494518       11.5073556783
  C         4.5922332425        6.9811251593       11.5590114940
  H         7.1081240769        8.3299828199       30.3330581573
  H         6.5580143258        8.6494165890       31.9591512633
  C         5.2744383666        7.2100209721       30.7380822912
  H        -7.1461880014       11.4640062118       25.3018452937
  H        -7.9434255694       10.9686244936       26.7611381652
  C        -8.6221921062       10.0389913970       24.8584975682
  H        -2.3308644698       17.2069095152       35.4742369534
  C        -3.0293888319       15.6971685394       36.6797411398
  H         5.3371516915        7.4668867472       10.9371899779
  H         5.1179450578        6.0160726426       11.7734589154
  C         3.2841853945        6.8003172138       10.7330091169
  H         4.9742283965        6.9938569696       29.7188674580
  H         4.3931446582        7.3440680973       31.3833536465
  C         6.1275851257        5.9559368748       31.2358051505
  H        -8.8501537606       10.6228078854       23.9817657575
  H        -8.3976072589        9.1094590409       24.3498749787
  C        -9.8850762606        9.8165181767       25.6805560604
  S        -3.5292961134       14.1384753448       37.2167971092
  C        -3.1908078885       16.7247196574       37.7128371260
  H         2.9418934118        7.6736649271       10.2132924838
  H         3.3233848806        5.9400280928       10.1130857625
  H         2.4697417664        6.5895756208       11.4051951669
  H         7.0764847186        5.8447479572       30.6686977135
  H         5.5557660343        5.0228551677       30.9291509610
  H         6.2543558552        6.0182440148       32.3129457797
  H       -10.7432358112        9.6454515197       25.0611031214
  H       -10.0661747004       10.6241157966       26.4061971408
  H        -9.7775948711        8.8851951698       26.2339524492
  C        -3.9673212398       14.8475008768       38.7309302318
  N        -3.7506059302       16.1988408897       38.8146766935
  O        -2.8206929893       17.8758789150       37.6269291406
  S        -4.4404638867       14.0342442238       40.2261023239
  C        -3.9117617907       16.9437444409       40.0920851266
  H        -4.0658979994       18.0041684671       39.8454708756
  H        -4.6961039999       16.6443842306       40.7979272005
  C        -2.5768381141       17.0345830870       40.7617997323
  H        -2.0408771008       16.0967350687       40.7994173517
  H        -1.8847547007       17.5082144303       40.0559474095
  H        -2.6385226027       17.5072158028       41.7274599129
