352
i=
  H         2.4635469311        4.0044321319       12.1572958903
  C         2.6503512535        2.9189097160       12.2706113332
  H         2.0867962378        2.3134985691       11.5292376835
  C         4.0375908702        2.7438565379       11.7448303879
  C         2.4806072085        2.4493447714       13.7548996250
  C         4.0612243390        2.7176151836       10.1976925620
  H         4.3264887809        1.7718728066       12.1480367522
  H         4.6606946370        3.5610083076       12.0480418442
  H         2.6279352618        1.3515676551       13.9066110050
  H         1.4913862974        2.7486248197       14.0605716945
  H         3.2465964751        2.9827574578       14.3047869580
  C         4.8551964082        1.4595231339        9.6840925233
  H         3.0564509133        2.6836976532        9.7970658746
  H         4.4666343940        3.6628181109        9.7521859762
  C         5.5425059696        1.6786372040        8.3261484650
  H         4.1404741445        0.5754055158        9.5014561284
  H         5.5445937381        1.0211102680       10.4278153616
  C         6.7686020933        2.4826561177        8.3625266800
  H         4.8223107632        2.2835295585        7.7910655237
  H         5.5586898248        0.7440977884        7.7594144715
  C         7.9492132018        1.8508387882        9.1703730829
  H         7.1370833353        2.7094516121        7.3328606414
  H         6.5230564472        3.4125300757        8.8465719710
  C         9.2151441512        2.7837232692        9.2958568478
  H         8.1946113979        0.9438389759        8.6099241702
  H         7.5567103283        1.5777660729       10.1719559710
  C         8.7941353450        4.0986576962        9.9125847410
  C         9.6725498183        3.4159506754        8.0201347684
  C        10.3926456000        2.2711318755       10.1504805714
  C         9.0263220384        5.1704995437        9.0758909532
  C         8.2367312825        4.5380027198       11.1225768822
  C         9.5992553535        4.7648498516        7.9222957601
  C        10.1427962368        2.8065396539        6.8474210950
  H         9.9940545027        1.6769563830       10.9503773063
  H        11.0138254393        1.6135598485        9.5951794661
  C        11.2625029721        3.3250175606       10.8453788955
  S         8.5060888642        6.6951869827        9.6948737326
  C         8.0418050974        5.8480833706       11.1586765337
  H         8.1642244729        3.8632681829       12.0394307420
  C        10.0821190282        5.4101398064        6.7630979206
  H        10.1858133542        1.8087894124        6.8420314438
  C        10.6913518648        3.4112306309        5.7638119542
  H        10.8684184940        3.7451684468       11.6626086706
  H        11.5831012412        4.0834812694       10.1507613891
  C        12.5768478050        2.8638161662       11.3305246866
  C         7.6821563915        6.5578875256       12.4216256330
  C        10.6096431778        4.7623240764        5.6230445600
  H        10.0659633093        6.4701339805        6.7335457453
  C        11.2268375951        2.9693642463        4.5332023470
  H        13.2027884644        3.7709778272       11.4993077956
  H        13.1095286040        2.2508958645       10.5293846963
  C        12.5235927699        1.9128734079       12.4741875365
  C         7.8281691051        7.9296033416       12.7204385319
  C         7.0476210548        5.7082481205       13.5432734001
  C        11.1763906735        5.4364090364        4.3509497352
  C        11.4028572029        4.0479725341        3.7051264508
  S        11.3840513842        1.4750161666        3.7436099806
  H        11.4717997521        1.7324118769       12.7713746354
  H        13.0113728372        1.0576184701       12.1917448554
  C        12.9891820860        2.5445720712       13.8506260044
  N         8.2664445226        8.8909895616       11.8214343233
  C         7.5246566414        8.4257251178       13.9614701996
  C         6.9167206326        6.2083357318       14.8446033936
  H         6.6659071989        4.6748609192       13.3779950617
  C        12.4590292382        6.2017380201        4.5606474239
  C        10.1775831314        6.1927199714        3.4694855901
  C        11.7420798931        3.6305880731        2.4152968391
  C        11.7857015225        2.2636747819        2.2650937932
  H        12.3836078022        3.4352891977       14.0748360656
  H        13.9863010765        2.7634401209       13.7956477469
  C        12.5872944372        1.7868054682       15.0891003229
  S         8.2927139136       10.3728836125       12.5651150251
  N         7.7318672382        9.8086985899       14.0069318983
  C         7.1559417257        7.6863765006       15.1186069062
  H         6.3924929902        5.5788194428       15.5551600022
  H        12.2560121647        6.8002128812        5.3908144850
  H        12.7202329283        6.8437859142        3.6871547221
  C        13.6585323708        5.2701958425        4.9919707178
  H         9.9493925911        7.0928528495        4.1283463251
  H        10.5533536297        6.5489132920        2.5246534009
  C         8.9137782588        5.4541255590        3.2636264881
  H        11.8437415819        4.3585704455        1.5972576667
  C        11.9980415393        1.5146654648        1.0032657316
  H        11.5273401258        1.4810558091       15.1130946411
  H        12.9763268558        0.8137944600       15.0425381080
  C        13.1828325499        2.3861579010       16.3834210042
  C         6.8683380035        8.4119156951       16.3508621491
  H        13.4203752647        4.7224094009        5.8263884776
  H        13.9177243717        4.6636261944        4.1684392549
  C        14.8135037432        6.1577086776        5.3308551908
  H         8.5290679961        5.1283043539        4.2239666115
  H         8.9952457963        4.6799304500        2.5643227806
  C         7.9122825609        6.4445480303        2.5608887293
  C        11.8905329284        0.1092034141        0.8297596624
  C        12.3823407753        2.3433322172       -0.1964133139
  H        12.9587041584        3.4889357034       16.6094775280
  H        14.2491246873        2.1867811994       16.3617305370
  C        12.6846934025        1.6625435468       17.6129565265
  H         6.8855013916        9.4788857519       16.3363551514
  C         6.4861644391        7.9933362414       17.6372117334
  H        14.6282374974        6.9231677379        6.0419556838
  H        15.0918584462        6.7333455923        4.5152937885
  C        15.9230785458        5.2668011108        5.8079492448
  H         7.6642473728        7.1428098644        3.3464763973
  H         8.3691668332        7.0574742411        1.7310519068
  C         6.6613165438        5.7106554300        2.0555146597
  N        11.5758799144       -0.7968796160        1.7884724830
  C        12.2184428578       -0.5182339911       -0.3209526074
  C        12.7698295611        1.6435065877       -1.3347636185
  H        12.4526965895        3.4311622798       -0.1313662112
  H        12.9923533199        2.0760578804       18.5593288892
  H        12.8490815979        0.6186519072       17.6274343131
  H        11.6382953193        1.7500265840       17.6302003163
  S         6.1470794717        6.3951367311       18.1583389007
  C         6.5393381575        8.9743641000       18.7384250714
  H        15.5272183586        4.7398972933        6.7055476341
  H        16.1309651684        4.5209333122        5.0037384308
  C        17.1025555488        6.0968917086        6.2406541334
  H         6.6039089499        4.8512089734        2.6662731443
  H         6.9718700427        5.2469563652        1.0604731591
  C         5.4617291494        6.6001573896        1.9416376413
  S        11.5749414801       -2.2923855523        1.2159586090
  N        12.1321042062       -1.9298211207       -0.2598161668
  C        12.5652035724        0.1675576709       -1.5421313629
  H        13.0368070803        2.2806610167       -2.1803510338
  C         6.0838920238        6.9944764882       19.8160025857
  N         6.1610574562        8.3710037853       19.9317168779
  O         6.9239581957       10.0984268722       18.5837791853
  H        17.4899030868        6.5757103030        5.3770237602
  H        16.8152295483        6.9247737224        6.8610377892
  C        18.1384587277        5.2479135990        6.9837472428
  H         4.6688815336        6.1178868868        1.4114042129
  H         5.1054239098        6.6212993156        3.0131670305
  C         5.6541120010        7.9567974341        1.2217470952
  C        12.7840659595       -0.5631264515       -2.7450728737
  S         5.5901708481        6.0901789279       21.2203013270
  C         6.1617453630        9.0208236690       21.2067810592
  H        17.8026207588        4.9027406932        7.9959838500
  H        18.2046925669        4.3241670637        6.4144373841
  C        19.4664578652        6.0310995818        7.1009505301
  H         6.1196423842        7.8071669872        0.2591974220
  H         6.2752152200        8.5341717265        1.7969596624
  C         4.3641482194        8.8300495827        1.0576421817
  H        12.3909582726       -1.5885341428       -2.7428908345
  C        13.4660490552       -0.2619753386       -3.9056527089
  H         5.3772125665        8.6557312735       21.9029486924
  H         5.7891378622        9.9649145943       21.1100346345
  C         7.6290334111        8.9989797468       21.6237430685
  H        20.0553253195        5.6080941430        7.9340633340
  H        19.3312074246        7.0685968012        7.2472745549
  C        20.4896580974        5.6576091233        6.0081731494
  H         4.6212678222        9.7727823584        0.5419881975
  H         3.6252762826        8.2369179655        0.5060670175
  C         3.7370973917        9.1508344449        2.3491564375
  S        14.2240225608        1.3143439901       -4.1536517275
  C        13.6307638767       -1.2509670845       -4.9800979575
  H         8.2880464240        8.9015846987       20.8071066156
  H         7.7866742886        8.1450091640       22.2940889334
  H         7.9222665772        9.8716239069       22.1647739345
  H        20.0643420647        5.2983900742        5.0384264141
  H        21.1379096117        6.5137120268        5.7686456053
  H        21.1441081431        4.9136731471        6.3302531940
  H         3.0459899130       10.0197002648        2.1425433410
  H         3.2580486937        8.2972648257        2.7247186217
  H         4.3763302553        9.6400997501        3.0982136795
  C        14.6810481932        0.6500824502       -5.6958159872
  N        14.3144308768       -0.6172324021       -5.9751886786
  O        13.0790849550       -2.3912559568       -4.9731525309
  S        15.4156552962        1.5773184050       -6.9839144864
  C        14.2581269250       -1.3655960871       -7.2814407051
  H        14.5109698880       -2.3941735218       -7.1711196653
  H        15.1277806165       -1.0676359035       -7.9240884271
  C        12.8680746718       -1.1708200640       -8.0003379291
  H        12.0418162559       -1.7248362527       -7.5804377502
  H        12.9247027543       -1.6282152195       -8.9877965518
  H        12.6950768628       -0.1634868446       -8.1149203047
  H        -3.4000487660       14.9736200281       16.5655128584
  C        -3.0626456673       13.9704226422       16.4381827671
  H        -3.9096334100       13.3015687602       16.4177330755
  C        -2.0977323990       13.6926563523       17.5728833233
  C        -2.4209936732       13.6416390625       15.0738341147
  C        -2.6222009670       14.0311862413       18.9987593516
  H        -1.7274924878       12.6265026355       17.4934565616
  H        -1.1693447058       14.2045043786       17.3685617452
  H        -1.7234980631       12.8156728233       15.1837717655
  H        -3.1692395735       13.3819402488       14.3627694536
  H        -1.9917751512       14.5751850269       14.6589390793
  C        -1.5096585847       13.7184312933       20.0338296993
  H        -3.5410512112       13.4502370911       19.2353310611
  H        -2.8368641325       15.0499981788       18.9213815516
  C        -2.0491129083       13.6560906721       21.4743071558
  H        -1.1153935034       12.7994684471       19.8890638229
  H        -0.6266247591       14.3736363353       19.9180266367
  C        -1.0537187948       12.9396727128       22.3706169787
  H        -3.0090733803       13.0968013685       21.3460794853
  H        -2.2404298348       14.6829203150       21.8073018269
  C         0.1089951970       13.7986109996       22.6418680438
  H        -1.6326337689       12.8194881132       23.2413269313
  H        -0.8073609582       11.9873748503       21.9568557549
  C         1.2059138119       13.0035682001       23.4821906680
  H         0.6097995234       14.3821889550       21.8517318325
  H        -0.2013058018       14.5293879343       23.3461451572
  C         1.6332171189       11.6867680620       22.8249772897
  C         0.8217456548       12.2943406330       24.7258580841
  C         2.3867279359       13.9710294101       23.6789995467
  C         1.3783278565       10.5885446404       23.6137009708
  C         2.0958134375       11.2771012428       21.5527954131
  C         0.9927765974       10.9497013179       24.8501040641
  C         0.3934440322       12.8777393050       25.9681083775
  H         2.5488604510       14.4782785170       22.7131696814
  H         1.9671088970       14.8135422118       24.2763477982
  C         3.7183735776       13.2232666426       24.0588117403
  S         1.5097168948        9.0619460387       22.8398400529
  C         2.1730463049        9.8829846308       21.4870857023
  H         2.3199698840       12.0374658075       20.8017717746
  C         0.5743674346       10.2447466895       25.9443526825
  H         0.4299199577       13.9120333439       26.0366103071
  C         0.1053159879       12.1688967024       27.1150583914
  H         3.9734578736       12.3920372173       23.3095712941
  H         3.4646316769       12.6688145305       24.9488326755
  C         4.8870416481       14.1319322243       24.1964406786
  C         2.7150396980        9.2536187855       20.1955997253
  C         0.1625119812       10.8074090470       27.1759381861
  H         0.5674280315        9.1573678629       25.8552732052
  C        -0.2321678563       12.4946297318       28.3745963589
  H         5.6035152347       13.7081712494       24.8330355881
  H         4.5148364153       15.0159154936       24.6459708683
  C         5.3899311898       14.3979197796       22.7977822716
  C         2.7122181522        7.8516359213       19.8299076234
  C         3.1570770327       10.1454721651       19.0880468198
  C        -0.1150825618       10.0877366727       28.4572117984
  C        -0.3849900000       11.4179070142       29.2022476341
  S        -0.6042450608       13.9966275253       29.0733373220
  H         5.9349010949       15.3115358118       22.7280469647
  H         4.5835752933       14.6430601781       22.1072252571
  C         6.2876751150       13.2559651997       22.1905056726
  N         2.4862545214        6.8195929748       20.7490695489
  C         3.0387361693        7.4544534759       18.5563526268
  C         3.5084904523        9.7058631752       17.7933029776
  H         3.2706741956       11.1961143679       19.3414488029
  C         1.1376577020        9.3189671597       28.9748813435
  C        -1.3410127374        9.1403623768       28.3126353560
  C        -0.7879904496       11.8491052012       30.4749878906
  C        -0.8967682386       13.1967136656       30.5633507804
  H         7.3134885780       13.4344447710       22.4562736026
  H         5.9377992590       12.3224975034       22.6561683582
  C         6.0898091733       13.1702596028       20.6608286308
  S         2.6135207425        5.4134693600       19.9689803803
  N         2.9445871081        6.0555099489       18.4836895078
  C         3.4029337915        8.2994553671       17.4530460613
  H         3.9056433490       10.3257847344       17.0600765221
  H         1.4848443850        8.7122800558       28.1583466713
  H         0.8784854321        8.5820744300       29.6657478347
  C         2.3714448495       10.0439070816       29.5536364895
  H        -1.0438292069        8.2874339623       27.7568117632
  H        -1.6729348044        8.8055568008       29.3117721483
  C        -2.5475729253        9.8960911761       27.7481490400
  H        -1.0184085883       11.1115296188       31.2271715393
  C        -1.2065004358       14.0330177723       31.7718457832
  H         5.4186400310       13.9067368427       20.2514851251
  H         5.6371022698       12.1687509796       20.4803310247
  C         7.4013473392       13.1823415032       19.9042571817
  C         3.4489855152        7.6875938378       16.1710672785
  H         2.9567564757       10.4745428010       28.7833160623
  H         2.0281787772       10.8787442860       30.1704909183
  C         3.2674661668        9.1631401021       30.3811035105
  H        -2.2771368981       10.3607764631       26.7638978844
  H        -2.7250177589       10.7804224190       28.3577657001
  C        -3.8056868329        9.0036915989       27.6924886499
  C        -1.2783941816       15.4495167652       31.9052903222
  C        -1.4361969786       13.3104017795       33.0459379787
  H         8.0962562629       14.0021117399       20.1442690167
  H         7.9670375549       12.2243112978       20.1446035088
  C         7.2045798138       13.1026348005       18.3616362780
  H         3.2178661370        6.6079154648       16.0834823854
  C         3.6828182385        8.2371361329       14.9266082149
  H         3.6488949437        8.4711744328       29.6509826896
  H         2.7588003119        8.5296298438       31.1025786044
  C         4.4068230920        9.9881452442       30.9085910848
  H        -3.7818632855        8.1794500551       26.9403928203
  H        -4.0521036036        8.5755445200       28.6916605426
  C        -5.0637409755        9.7205663877       27.2598132251
  N        -1.0568589823       16.3081015520       30.8511385193
  C        -1.6764343641       16.0756702989       33.0339935905
  C        -1.6393527604       13.9824559784       34.2234501818
  H        -1.3294828140       12.2356105675       33.0470922710
  H         7.7736854522       12.2436727677       17.9271963926
  H         6.1496512990       12.8499805000       18.1532837702
  H         7.5749706640       13.9998051990       17.9090186797
  S         3.8326902170        9.8625137611       14.4956102326
  C         3.9002768461        7.1953048157       13.8443118275
  H         4.4775029278       10.9323509699       30.3704083452
  H         4.2542060946       10.2758453161       31.9329291490
  C         5.8039803285        9.3179080189       30.8689174528
  H        -5.3938530088       10.3989189901       28.0543426791
  H        -5.9335893642        9.0404547475       27.1458783573
  C        -4.9866191678       10.4976896585       25.9359583127
  S        -1.2480945540       17.8130346643       31.3519312367
  N        -1.7294345874       17.4591936589       32.8843428362
  C        -1.8654830039       15.4570872462       34.3214544350
  H        -1.5907077776       13.4761737255       35.2009719675
  C         4.3372144491        9.2146106804       12.9515864750
  N         4.3324517461        7.8472183634       12.8088989249
  O         3.9053483181        6.0148857574       14.0306386366
  H         6.4071777268       10.0495216406       31.3819098963
  H         6.1351334624        9.2769769521       29.7936483244
  C         5.8410280427        7.9968374733       31.6313677566
  H        -4.1322767564       11.1776203056       25.9710765744
  H        -4.9806066003        9.7954751773       25.1621969037
  C        -6.2683265788       11.2970482625       25.7574366069
  C        -2.1850286945       16.2531234875       35.5012851149
  S         4.8024840955       10.2441570304       11.5416231656
  C         4.6732694945        7.1582610031       11.5424361396
  H         6.6366221510        7.9739045270       32.3825956844
  H         4.9038902147        7.7464016167       32.1295441039
  C         6.2350093061        6.8082906674       30.7180112242
  H        -6.1936422009       12.1047139283       25.1171412685
  H        -6.5817442281       11.5698010206       26.7728047073
  C        -7.4593702821       10.5317139652       25.2448487431
  H        -1.9193737158       17.2088374526       35.4614327821
  C        -2.5749608171       15.9703961593       36.7966265987
  H         5.4723530094        7.6585122988       11.0346826172
  H         4.9649642078        6.1098775899       11.6521222616
  C         3.5489308049        7.0281080306       10.4412697935
  H         7.0787895367        7.0130031660       30.0207552611
  H         5.3375269244        6.5582219391       30.1190244761
  C         6.7917068022        5.5895326078       31.4762489584
  H        -7.9691799815       11.1480948093       24.5727091883
  H        -7.1093951330        9.7641615404       24.5570372555
  C        -8.4534804406       10.0010846635       26.2590656978
  S        -3.0978533951       14.4548553808       37.4938155148
  C        -2.6711257156       17.1485661781       37.7336242835
  H         2.8821948513        7.9261748525       10.4033961302
  H         3.9869857651        6.9351461000        9.4830139209
  H         2.9662908621        6.0909378978       10.6467660205
  H         7.0102582072        5.8848649808       32.5047323385
  H         7.5489466229        5.1469000754       30.9346062458
  H         6.0195623534        4.8796365162       31.4320290585
  H        -9.3440555176        9.6672388059       25.6833501503
  H        -8.6633689586       10.6928984698       27.0642525774
  H        -8.0480860545        9.1433876636       26.7871287504
  C        -3.4801269577       15.4115458462       38.9354617601
  N        -3.2308231264       16.7233845297       38.8756907507
  O        -2.3588984486       18.2802991990       37.3846074126
  S        -4.2387250496       14.7681025156       40.3345836066
  C        -3.4138675115       17.6497888918       39.9490650237
  H        -3.6416301367       18.6919964895       39.5830753975
  H        -4.2253158814       17.3639868682       40.6012343790
  C        -2.1551384107       17.7587536763       40.8027063604
  H        -1.5943486258       16.8689048889       40.7143984988
  H        -1.6246680633       18.6511589769       40.4350137025
  H        -2.5270941148       17.8652566075       41.8320452207
