352
i=
  H         2.4970444737        1.2924247320       13.1451122995
  C         3.3432792259        1.5850955695       12.5201469979
  H         3.6689351930        0.5874540342       12.1906592427
  C         2.6706320627        2.4947780587       11.4163900973
  C         4.5526062010        2.1204372866       13.2417148149
  C         3.6316183295        2.6581654141       10.1768178511
  H         2.5273908811        3.4974823899       11.8031984459
  H         1.7281221088        2.1110199136       11.2233442615
  H         4.2429121418        2.1996355148       14.2844626418
  H         4.8643793514        3.1386036666       12.9527742075
  H         5.3505059641        1.4002464124       13.1207148696
  C         4.3442871592        1.3726979519        9.6267577491
  H         2.8928242833        3.0155996896        9.3833628410
  H         4.3705280329        3.4369935273       10.2929117578
  C         5.1536522766        1.7307754942        8.2662024703
  H         3.6378522614        0.4720403268        9.5281546941
  H         5.0437739961        1.1009188008       10.4174268148
  C         6.4323514927        2.5822640689        8.4254573858
  H         4.4482615962        2.1197743652        7.5258125943
  H         5.3974303303        0.7966864839        7.7410439311
  C         7.5658142791        1.7333542181        9.0940214078
  H         6.6822175716        3.0239580335        7.4295852824
  H         6.2318407321        3.5010042939        9.0238247141
  C         8.8533187985        2.5723675173        9.3394657748
  H         7.7296718170        0.9294521694        8.3927940197
  H         7.3052969239        1.3200749471       10.0600855569
  C         8.5720488359        3.9529463924       10.0348705256
  C         9.3828265563        3.2553027932        8.1204314984
  C         9.9512252367        1.7953833629       10.2359657094
  C         8.8244879984        5.0186952085        9.2423928295
  C         8.1057287670        4.3545943185       11.3212687146
  C         9.2877245589        4.6006988736        8.0157753443
  C         9.8300058072        2.5992277094        6.9636817232
  H         9.4113045157        1.3863290646       11.1352837087
  H        10.3186221134        0.9562943385        9.6899163896
  C        11.1402056026        2.6296425560       10.7728693415
  S         8.3358083576        6.5649919512        9.9403126041
  C         8.0225876062        5.7186392125       11.4359013780
  H         7.7634156325        3.5889308180       12.0096183051
  C         9.6001605944        5.2637788761        6.8751461236
  H         9.8002097848        1.5315437565        6.8985034839
  C        10.1917463660        3.2498347683        5.8296159392
  H        10.7926150752        3.5955939947       11.2056903623
  H        11.7528195878        2.9862402990        9.9596502456
  C        11.9886272396        1.7164805952       11.7277877714
  C         7.5705832602        6.3953127823       12.7215984532
  C        10.0487767405        4.5675839393        5.6945110446
  H         9.4028793703        6.2804107439        6.8324895104
  C        10.5135212129        2.8256384756        4.5673817923
  H        12.7560949958        1.2097754146       11.1615760179
  H        11.3588648626        1.0366599077       12.3140838659
  C        12.7815016017        2.4782348810       12.8840075144
  C         7.4881008688        7.8184512411       12.9701404643
  C         7.1505955489        5.5090411242       13.8455654912
  C        10.3544118828        5.2521254770        4.4139340299
  C        10.7326248810        3.9138745379        3.7208144529
  S        10.9396798047        1.3108738626        3.8425201582
  H        13.5332560334        3.1318394955       12.4784724444
  H        12.0388396056        3.0640013802       13.3677445393
  C        13.3252733619        1.5935318891       13.8972130763
  N         7.7396449062        8.8746852071       12.0447394191
  C         7.1418659205        8.3222396084       14.1847108585
  C         6.7754342129        6.0348138197       15.0414364651
  H         7.1904904578        4.4291044353       13.7763368859
  C        11.6478083579        6.1038953366        4.5498488761
  C         9.1578156914        5.9172032690        3.6559485110
  C        11.1744735552        3.4778262639        2.4420451248
  C        11.2694741744        2.1148080539        2.3457104593
  H        14.0439784756        2.1727711420       14.4363109082
  H        13.7848084063        0.7290988542       13.3366705127
  C        12.4189789047        1.0007222478       14.8950821283
  S         7.5184713296       10.3137833434       12.8051975057
  N         7.2149675619        9.6714889978       14.2349452001
  C         6.7073237488        7.5187444639       15.2700768649
  H         6.4667213992        5.3586030153       15.8999968300
  H        11.5330237914        6.9298093733        5.2597739830
  H        11.8340915495        6.5659413625        3.6220202150
  C        12.8893742783        5.2493122953        5.0145257395
  H         8.7801423421        6.9141179298        3.9779020068
  H         9.5337897993        6.1187573957        2.7390698347
  C         8.0447489219        4.8947474985        3.3112971183
  H        11.2385496710        4.2416132576        1.7524727695
  C        11.6640356432        1.3468645151        1.1139214982
  H        11.3999169577        1.1161766647       14.5862843427
  H        12.6044912621       -0.0595141503       15.0455974731
  C        12.5789868783        1.5749650993       16.3118804122
  C         6.5523180494        8.1685760684       16.5193735124
  H        12.6066417097        4.7248555285        5.9743950613
  H        13.1653318792        4.6279098970        4.1843287273
  C        14.1351769030        6.1569983448        5.2225181210
  H         7.5307895389        4.5999255140        4.2597705262
  H         8.4630369125        3.9886880172        2.8255167881
  C         7.0680270632        5.4284991872        2.2302997255
  C        11.7933684191       -0.0612467608        0.9226472665
  C        12.0091964501        2.1839017808       -0.1168497726
  H        12.4509298664        2.6545189680       16.3129749752
  H        13.6096833035        1.4319826848       16.6714955489
  C        11.5899277549        0.9927255654       17.1969361540
  H         6.6966446016        9.2217011555       16.5494724817
  C         6.1475217943        7.7347082336       17.7452778826
  H        14.0652188037        6.7975162957        6.0432411982
  H        14.0846998303        6.8148613321        4.3992262917
  C        15.4051204428        5.3795008405        5.1290814747
  H         7.5533765156        6.0828812086        1.5299314812
  H         6.6873920951        4.6861280806        1.5413539587
  C         5.9557065903        6.2224158370        2.8360968260
  N        11.6977689852       -1.0181252850        1.9383122161
  C        12.0259602245       -0.7087126448       -0.2829038736
  C        12.3375597451        1.4974517273       -1.3404862645
  H        11.8357886134        3.2167903866       -0.0488022615
  H        11.7886766756        1.4391598762       18.1037863987
  H        11.8121789255       -0.1185137157       17.2440948829
  H        10.4638052990        1.0369553616       17.0084574050
  S         5.7537505314        6.1247153181       18.2412446272
  C         6.1862670385        8.6997431920       18.8475427980
  H        15.1655254793        4.4248216083        5.5336785377
  H        15.6907810573        5.2514042008        4.0439684447
  C        16.5711571317        5.9933650319        5.8705495283
  H         6.2818825078        6.5278702467        3.8197519437
  H         4.9998593910        5.6213226804        3.0517830414
  C         5.6088432399        7.4819962343        2.1224985540
  S        11.6132816894       -2.5153627054        1.2883029420
  N        11.9124223211       -2.1590095084       -0.2246144286
  C        12.4117056199        0.0352103848       -1.3946722833
  H        12.4713495095        2.1442613826       -2.1506735244
  C         5.6156838699        6.7898523270       19.8763050218
  N         5.7489836089        8.1181553506       19.9770732820
  O         6.5493101911        9.8439998974       18.6805082215
  H        17.0145060132        6.8589232560        5.3590683970
  H        16.2068250542        6.4926722763        6.7805558098
  C        17.6269383543        4.9653671399        6.2403991504
  H         6.4279426366        8.1840688749        2.1141474992
  H         5.4250073548        7.2516807902        1.0951836262
  C         4.2969263345        8.1506527708        2.6150591131
  C        12.7595762246       -0.6749988411       -2.6002612820
  S         5.0647071647        5.8812450302       21.3133199160
  C         5.7293097674        8.8239784634       21.2907367626
  H        17.3441804146        3.9834499022        6.5544711721
  H        18.0971904233        4.7325155193        5.2499839405
  C        18.7374862846        5.5158053460        7.1216235232
  H         4.0678560998        7.8824832324        3.6559213374
  H         3.4760799060        7.7409624664        1.9787676479
  C         4.2906232178        9.6443872216        2.3096575169
  H        12.5255724527       -1.7361289865       -2.5787516567
  C        13.2781036258       -0.2887258472       -3.7947047196
  H         5.1370052185        8.4063654491       22.1202776886
  H         5.2916255735        9.8599896455       20.9876342284
  C         7.1985292741        9.0500829976       21.8134381777
  H        18.9651065186        4.6441182953        7.8132545512
  H        18.4159533836        6.3569666155        7.7657324703
  C        19.9779908502        5.9270367578        6.4044778680
  H         3.3926394450       10.1298446602        2.5882910517
  H         5.0748939487       10.0632655916        3.0183697020
  C         4.4811284441       10.0708434308        0.8827113781
  S        13.7952482923        1.3130642849       -4.2785492176
  C        13.3971676441       -1.3487732783       -4.8420779105
  H         7.1711963657        9.8728270578       22.5037264428
  H         8.0015484292        9.1618192086       21.0815893620
  H         7.5848049959        8.1795726992       22.3947676180
  H        20.2127455734        5.1370091504        5.7683986033
  H        19.7954261610        6.8025713381        5.8018796888
  H        20.7581197741        6.3584651840        7.1133507133
  H         5.2943212576       10.7579811441        0.7827991066
  H         4.6561827360        9.1105175665        0.4152039538
  H         3.5206094533       10.5208390581        0.5169111558
  C        14.2225800510        0.5451546621       -5.7704397527
  N        13.9912445770       -0.7684397550       -5.9107115145
  O        13.0970029074       -2.5080017985       -4.7077317798
  S        15.0019634739        1.2602613994       -7.1692312366
  C        14.1393384011       -1.4259742214       -7.2586614738
  H        14.2864815991       -2.4462277267       -7.0936584634
  H        15.1743560521       -1.2389757372       -7.6641411106
  C        12.9286850193       -1.2479684566       -8.1362130507
  H        12.6500553651       -0.2134687977       -7.9343204922
  H        12.0576406270       -1.7597511758       -7.8047032178
  H        13.0503673773       -1.4648568329       -9.1927767666
  H        -3.1504601013       14.2666068130       16.3390007550
  C        -3.2416772890       13.2002807696       16.5129461223
  H        -4.2691885614       13.0822889781       16.8127231236
  C        -2.3936326446       12.8534519685       17.7164411609
  C        -2.9260528276       12.5014959614       15.1949717279
  C        -3.0101283315       13.1035186114       19.1603345408
  H        -2.1647628406       11.7963351349       17.6218228060
  H        -1.5610015256       13.5100902197       17.6343958412
  H        -2.5917282907       11.4075255606       15.2075439227
  H        -3.7626334737       12.7133826431       14.4786384758
  H        -2.2043799518       12.9467172846       14.5875928777
  C        -1.9803287437       13.0461231687       20.2378160344
  H        -3.7349480524       12.2567473684       19.2992290574
  H        -3.4975138848       14.1059198926       19.1309121899
  C        -2.5722502419       12.9745650941       21.6443436843
  H        -1.3711016366       12.1843812133       20.0578013805
  H        -1.3188915700       13.9217411375       20.1806472964
  C        -1.5593498433       12.5447498844       22.7265824962
  H        -3.4669999263       12.3201429533       21.5174062653
  H        -2.9505242018       13.9453143633       21.7880692710
  C        -0.2857940151       13.3742510755       22.8228642396
  H        -2.0105594690       12.6328986313       23.7526840678
  H        -1.3007773513       11.4689080470       22.4826245148
  C         0.9498515219       12.6884447061       23.5302188573
  H         0.0234899420       13.7161027582       21.8419052226
  H        -0.5208253940       14.3113175656       23.2913871283
  C         1.3296793852       11.3382999361       22.8400854998
  C         0.5803444172       11.9841358669       24.7552490339
  C         2.1559994646       13.6782227102       23.5721223369
  C         1.0573589619       10.2357030181       23.6794661548
  C         1.9575329825       10.9269500816       21.6490210731
  C         0.5946400907       10.6460469866       24.9169493664
  C         0.1534745946       12.6924488348       25.9456361816
  H         2.4528534958       14.1147104375       22.6116040937
  H         1.7872756727       14.4251056500       24.1666588537
  C         3.4121338168       13.1691950882       24.3382928238
  S         1.4524637418        8.6745034718       22.9957272304
  C         1.9201788073        9.5814954416       21.5734025423
  H         2.1287705698       11.6422275643       20.8852975428
  C         0.3036853592       10.0484175265       26.1131224229
  H         0.1371749451       13.7765569355       25.8219497013
  C        -0.1853708335       12.0581333800       27.0882219318
  H         3.8173661972       12.3194046306       23.9119867571
  H         3.0450222444       12.8781866997       25.3495340707
  C         4.5825948591       14.1323620519       24.6497271024
  C         2.2924743261        8.8494871814       20.3001826183
  C        -0.1115063698       10.7063329056       27.2711924091
  H         0.3244658256        8.9756414045       26.1874636979
  C        -0.6523425562       12.4282981930       28.3563842406
  H         5.2491908992       13.5891831813       25.3008901994
  H         4.1904392224       14.9110571920       25.3106492054
  C         5.1343410628       14.7465538777       23.4533881177
  C         2.2016178684        7.4325786320       20.0439586835
  C         2.6396684318        9.6347860439       19.0672883361
  C        -0.5371856449       10.0311995770       28.5480963685
  C        -0.8631397438       11.3911888230       29.1806798323
  S        -0.7318885616       13.9263699873       29.0489551770
  H         5.5133224476       15.7320314880       23.7576167919
  H         4.3605235083       14.8784491742       22.6639605250
  C         6.3301885506       14.0523854803       22.7640914794
  N         1.8080044443        6.5578721126       21.0460484894
  C         2.4742454435        6.8486526229       18.8126202289
  C         2.8077374584        9.0636020250       17.8524925077
  H         2.8489112589       10.7036226410       18.9587086985
  C         0.6879580886        9.2851897708       29.1841086968
  C        -1.7400807688        9.2772055714       28.2971475731
  C        -1.1641406181       11.8604150682       30.4959064358
  C        -1.2428466682       13.2329601388       30.4751742660
  H         7.0724783239       14.8534279516       22.6910912897
  H         6.7968645723       13.3255889075       23.4900571153
  C         6.0431148915       13.4293009141       21.4847148104
  S         1.9591048969        5.0636214509       20.3648219713
  N         2.3969087045        5.4818683967       18.8823462798
  C         2.7728765329        7.5708185323       17.6454060284
  H         3.3038135652        9.6509437736       17.1004561605
  H         1.0200447783        8.7101004804       28.3246124953
  H         0.3588830258        8.7043167100       30.1278754041
  C         1.8012438688       10.2115148917       29.6513035918
  H        -1.5060289131        8.4961072506       27.5248960892
  H        -2.0278788491        8.6542106657       29.1548776155
  C        -2.9723050088       10.1227632570       27.7789634483
  H        -1.2296898779       11.1662303817       31.3102337747
  C        -1.4187759273       14.0406940989       31.7612644654
  H         5.7023563054       14.1491787682       20.7664429465
  H         5.3386114426       12.6154249646       21.5986108251
  C         7.3426825397       12.8314168822       20.9988341656
  C         3.0175781664        6.9685239966       16.3710007630
  H         2.1810768112       10.8864023936       28.9193300109
  H         1.4254016330       10.8941795905       30.4526427789
  C         2.9842518629        9.3129890252       29.9572100704
  H        -2.7188250629       10.6007156293       26.8473812119
  H        -3.2495927582       10.9639266670       28.4898385458
  C        -4.1851866683        9.2953544236       27.4354205324
  C        -1.3766243155       15.4192577858       31.9135713856
  C        -1.4418301362       13.2606178471       33.0563229165
  H         8.3507913411       13.1545864402       21.3205684834
  H         7.2932049510       11.8145646989       21.3898790834
  C         7.4405129337       12.9604284147       19.4593064377
  H         2.9434982507        5.8964147436       16.3643273975
  C         3.2637263211        7.4121317870       15.0967279724
  H         3.0993989151        8.5572499587       29.1496076701
  H         2.6256753384        8.7217367313       30.8285050270
  C         4.2366818904       10.0692876764       30.3270459990
  H        -4.0609948889        8.6279963363       26.6013643126
  H        -4.6027476598        8.6914748183       28.3177450383
  C        -5.2566355103       10.3173338479       27.0235332326
  N        -1.1079750412       16.3854248584       30.8944660918
  C        -1.6520149173       16.0680586113       33.0777227825
  C        -1.6687838913       13.9363522436       34.2945622151
  H        -1.3912334764       12.2285839563       33.0564166408
  H         7.8298609838       13.9270083133       19.0360638028
  H         7.9683864249       12.0666840387       19.0920266369
  H         6.4667345768       12.9055698253       19.1697847007
  S         3.8154754847        8.9606563505       14.6458031511
  C         3.1842830702        6.3538101108       14.0407449472
  H         4.4576038341       10.7506314660       29.4896544020
  H         4.2171168390       10.5728888564       31.3247213141
  C         5.5481883257        9.2841548992       30.3551176982
  H        -5.0242383254       10.9959709535       26.1773539681
  H        -5.6079253995       10.8736243894       27.9291951995
  C        -6.4341084519        9.5640607822       26.4482459802
  S        -1.4346756290       17.8917444703       31.4653839365
  N        -1.7135977233       17.4102920468       32.9850145283
  C        -1.9067469499       15.3956991245       34.3133443120
  H        -1.7382168131       13.3656846157       35.2295800980
  C         3.8864656696        8.2570261277       13.0180455370
  N         3.6150533586        6.9594970420       12.9233327869
  O         2.8480106088        5.1689677082       14.2250671260
  H         6.4264550317        9.9210369332       30.6348747448
  H         5.7888958061        9.0282028834       29.3123429892
  C         5.5033845432        8.0699413780       31.2789064449
  H        -6.2184084291        9.1421716292       25.4724265553
  H        -6.6838818966        8.6847977913       27.0747086572
  C        -7.5727209990       10.4345327970       26.1504176048
  C        -2.2277547091       16.1253799233       35.4452510688
  S         4.2949729190        9.1639982694       11.5575305221
  C         3.6489525817        6.2195757645       11.6711935354
  H         6.3613971319        8.2173833572       31.8832315465
  H         4.6477609179        8.0536119109       31.9807466707
  C         5.6692612754        6.6869957395       30.6721705613
  H        -7.1362981565       11.2336917922       25.5725909546
  H        -7.9459814141       10.9845525556       27.0487308833
  C        -8.7366160544        9.8888227929       25.2829929850
  H        -2.2059500572       17.1670520819       35.3130340705
  C        -2.7024436267       15.7272918859       36.6648383865
  H         4.5624048691        6.6045982959       11.1819304017
  H         3.9728201025        5.2213726723       11.9173393240
  C         2.2452256045        6.2692545412       10.9484079778
  H         6.2280303563        6.8488703688       29.7789074028
  H         4.7179853815        6.3214898096       30.5153899593
  C         6.3447276729        5.7135702995       31.6367425777
  H        -8.9406198481       10.6089597474       24.5351786419
  H        -8.4790803596        8.9295190819       24.7887699942
  C        -9.9389982504        9.5193643869       26.1389000079
  S        -3.1655271978       14.1949093268       37.3196410517
  C        -3.1008488044       16.8278993201       37.5662815975
  H         1.4686391666        6.0817376759       11.7211118477
  H         2.0861136802        7.2129902434       10.4309727511
  H         2.1639121076        5.4150750045       10.2412669537
  H         5.6066580880        5.0174921119       31.9551175545
  H         6.7053165135        6.2767444927       32.4885182373
  H         7.1079690740        5.0462929074       31.2561504389
  H       -10.5365900227       10.4310572067       26.3779490132
  H        -9.6332976017        9.0989867863       27.0935593012
  H       -10.4791505364        8.8433105479       25.5943771838
  C        -3.7935083251       15.0637438303       38.7506015304
  N        -3.6523822604       16.3964897928       38.6757793723
  O        -2.7306197993       17.9780089623       37.3857897240
  S        -4.5032802462       14.2909847132       40.1149705902
  C        -3.7271152516       17.2351947417       39.8304639879
  H        -3.9920885537       18.2398414434       39.5151374082
  H        -4.4462908502       16.9924761366       40.6107561133
  C        -2.4431882740       17.2022776814       40.5818278241
  H        -1.6887745587       17.9200935795       40.1916756932
  H        -2.6571692027       17.5611283934       41.5055413640
  H        -2.0034688346       16.1978969057       40.6349696239
