352
i=
  H         4.5903082619        1.8536036677       12.6809156294
  C         3.8294128443        2.6634614280       12.5633904807
  H         4.4903449086        3.4886549958       12.4690692685
  C         2.9466466576        2.5280019545       11.3843374046
  C         3.1045531746        2.9114884857       13.8342453839
  C         3.6682325632        2.7672526148       10.0313653283
  H         2.0893514997        3.2584207142       11.4217291754
  H         2.4943130025        1.5592931206       11.3475454627
  H         3.7308633239        3.0888288334       14.6405719501
  H         2.5278033627        2.0112068219       14.0678020138
  H         2.3388101830        3.6450605742       13.7539449021
  C         4.4154898183        1.5191535194        9.6592271554
  H         2.9841659175        2.9627527378        9.2271573972
  H         4.3016518795        3.6981362753       10.1113985444
  C         5.0287766732        1.6979298213        8.2396333411
  H         3.7235587199        0.6252320933        9.7632630772
  H         5.2819922482        1.4116715914       10.3875133931
  C         6.2311508895        2.5992375202        8.3140660446
  H         4.3241821373        1.8064020310        7.4284665981
  H         5.4242275143        0.7373411761        7.9423518690
  C         7.4448800782        2.0403829655        8.9999212109
  H         6.4740697550        2.9432650352        7.3032774504
  H         5.8283741902        3.3860806736        8.8923736834
  C         8.7307490228        2.9432986865        9.1780179921
  H         7.7872474699        1.1169249530        8.5198218695
  H         7.2431960298        1.7304679845       10.0020653302
  C         8.3059471477        4.2559923819        9.8642983133
  C         9.1074519438        3.6299424525        7.9113153008
  C         9.9056074334        2.1779108692        9.7530143327
  C         8.5134008629        5.3670642735        9.0342399754
  C         7.7231097977        4.6686576496       11.0651096614
  C         9.0053378930        4.9754213975        7.7793680354
  C         9.6668909862        2.9785531997        6.7683458921
  H         9.5386433869        1.7197079517       10.6980538554
  H        10.1243063515        1.2809714398        9.1557991903
  C        11.1211555170        3.0537376905       10.0445064891
  S         8.3111866356        6.9086800079        9.8519879487
  C         7.7738276372        6.0197634387       11.2680515895
  H         7.5135649911        3.9328882453       11.8117666454
  C         9.4280143695        5.6214531940        6.6728811055
  H         9.8082614173        1.8800720065        6.8081087758
  C         9.9680828217        3.6122992329        5.6358014218
  H        10.8293089647        4.0354499569       10.3678316911
  H        11.5989537316        3.3525450992        9.0877054926
  C        12.1195629020        2.4145790848       10.9816829304
  C         7.4765974641        6.6143029201       12.6209123753
  C         9.9136255659        4.9706827715        5.5494091466
  H         9.5263184855        6.7363423143        6.6898519306
  C        10.3501486946        3.2330621844        4.4005650832
  H        13.1891928591        2.7685991657       10.6618151303
  H        12.0929641761        1.3470836089       10.8400736784
  C        11.7259779983        2.8068127650       12.4248856699
  C         7.4786677094        8.0167622962       12.8957043098
  C         7.0174617742        5.6895125275       13.7021269310
  C        10.3215423993        5.6652138801        4.2797795731
  C        10.5348387014        4.3367262384        3.5655302934
  S        10.7025704906        1.7181389181        3.7595820180
  H        11.9065228017        3.8505306593       12.5516845538
  H        10.5711941761        2.8721196873       12.5859140563
  C        12.2591229971        1.9175004456       13.4407895365
  N         7.9789513846        8.9089752059       11.9209661867
  C         7.2835203414        8.5759686411       14.1065003794
  C         6.7953076772        6.3365175016       14.9318941514
  H         7.0111215949        4.6200276735       13.6745488881
  C        11.6488799169        6.5245941420        4.5641766828
  C         9.1608540243        6.5616617186        3.6915624473
  C        10.9071432751        3.9069725249        2.2393632219
  C        11.0545538308        2.5129488515        2.2116686183
  H        13.2986167145        1.9351627896       13.4776767287
  H        11.9263447606        0.8171384056       13.4000015251
  C        11.9493209093        2.3736844581       14.9103009793
  S         8.0442578170       10.4137633558       12.5817981246
  N         7.5235598893        9.9255722820       14.0806625108
  C         6.9682541905        7.8142000013       15.2255925336
  H         6.3108711149        5.7415409211       15.6603268488
  H        11.4672770455        7.2652303378        5.3424215568
  H        11.8693057929        7.1515607530        3.6010714120
  C        12.8167418780        5.6633086415        4.8978014472
  H         8.8572333145        7.2204635355        4.5140067191
  H         9.4196083670        7.1963202021        2.8565327979
  C         7.9677195324        5.7016858870        3.1398684375
  H        11.0623138599        4.6221876789        1.3951835938
  C        11.3639471402        1.7563564483        0.9414232099
  H        12.1191955941        3.4479063181       14.9797723665
  H        10.9056045487        2.2387399534       15.1180440194
  C        12.6998126702        1.4824964294       15.8928808980
  C         6.7006739187        8.5128877469       16.4173834575
  H        12.5519913439        4.9229675731        5.6378967203
  H        13.1303607324        5.1097224055        4.0553113946
  C        14.0543691868        6.4566712683        5.3718157580
  H         7.6468581475        5.0793787630        3.9560606868
  H         8.2462443588        5.0250265462        2.2951895551
  C         6.8587557737        6.6485728139        2.6688140365
  C        11.4466875329        0.3220874821        0.8877643533
  C        11.5970262310        2.4402489085       -0.3595902822
  H        13.6873350093        1.2681536451       15.5638746714
  H        12.0885713646        0.5780739563       15.8135157985
  C        12.5335791479        1.9189602401       17.3380087448
  H         6.6655231121        9.5541898689       16.3351166056
  C         6.5546062201        8.0772725352       17.6983444724
  H        13.8775073564        6.9859892883        6.3454335625
  H        14.2945787925        7.1608909976        4.5330184361
  C        15.3043244658        5.6024545850        5.5572340758
  H         6.6320341714        7.2511055453        3.5588512249
  H         7.2597291713        7.3435499796        1.9778991447
  C         5.5759530123        5.9814703771        2.1885720637
  N        11.3600624994       -0.5798889771        1.9507924452
  C        11.7997077658       -0.3281299752       -0.2915423663
  C        11.9078397431        1.7778821212       -1.5112114042
  H        11.5052858339        3.5458532506       -0.3979312629
  H        12.9368540445        2.9229922051       17.5505077017
  H        13.0649158897        1.1781137159       18.0098690911
  H        11.4884741799        1.7791076693       17.7010895932
  S         6.3444089918        6.4185863151       18.1510659826
  C         6.4356808984        9.0823124551       18.7592711335
  H        14.9972646432        4.6791952097        6.0259720231
  H        15.6772224132        5.3724281335        4.5019896053
  C        16.5139362084        6.2000884824        6.3210841341
  H         5.2439412645        5.2219456422        2.9136893130
  H         5.8510008393        5.3154047645        1.3766844079
  C         4.5592616809        7.0060146971        1.7281765025
  S        11.6991056323       -2.0625599808        1.3979976231
  N        12.1969694918       -1.6854986009       -0.0940705104
  C        11.9348218142        0.2663505649       -1.5773123692
  H        12.0566265972        2.4051163206       -2.3813473178
  C         6.1456932792        7.0484350665       19.7946470720
  N         6.1188478229        8.4220058103       19.9069229816
  O         6.6264872348       10.3036015913       18.5279419157
  H        16.8640707373        7.1359415625        5.8272084188
  H        16.2113524857        6.4473612792        7.2887543180
  C        17.7143079324        5.2512530645        6.4642009491
  H         5.0745507980        7.5500104198        0.9090592937
  H         3.7861161059        6.4495052751        1.1543975141
  C         3.8844645674        7.9181549537        2.7897488924
  C        12.2736296589       -0.5276959142       -2.6730576894
  S         5.6121233649        6.1660703803       21.2054374612
  C         6.0545892087        9.2245279017       21.1457267406
  H        17.4730617423        4.2713210415        6.9051286080
  H        17.9993347292        4.9450409647        5.5259835970
  C        18.8541554588        5.8787326239        7.2476374566
  H         4.6085508235        8.2187256113        3.4855972728
  H         3.2185934936        7.2329928427        3.2220223511
  C         3.0043666848        9.0397753856        2.1792608605
  H        12.0240378746       -1.5590201327       -2.5941773978
  C        12.8824313047       -0.2255137213       -3.8603250264
  H         5.4299927507        8.8519206977       21.8321279049
  H         5.5266133356       10.2055019733       20.9615407467
  C         7.4720445041        9.4907833846       21.6890358727
  H        19.1544291222        5.3604228300        8.2239171033
  H        18.6561266593        6.8891343004        7.4684735260
  C        20.0604479833        5.9263114590        6.2879102359
  H         2.6237435746        8.7211164214        1.1934298657
  H         2.0674268443        9.0906006381        2.7469102856
  C         3.6866069644       10.4113314811        2.1127038239
  S        13.4132752807        1.3558539610       -4.4197924529
  C        12.9498622265       -1.2460677035       -4.9791144529
  H         8.3322814121        9.5479969920       20.9053697736
  H         7.7392198916        8.8155255241       22.4016468659
  H         7.5464482895       10.5216374836       22.1214703881
  H        20.8835008772        6.4351634293        6.7562559501
  H        20.2756183061        4.8855139648        6.0660479416
  H        19.8677845636        6.4613698038        5.3747157721
  H         3.0109142195       11.2096040933        2.1017514850
  H         4.2986208579       10.5027213446        3.0033608447
  H         4.2388402372       10.5307017176        1.1598924537
  C        13.7046036884        0.6168222091       -6.0255291467
  N        13.4337912560       -0.7233384682       -6.1006408361
  O        12.4253943875       -2.3757861302       -4.8099859406
  S        14.0056666149        1.4966936032       -7.5194122000
  C        13.5184833749       -1.5103303086       -7.2879008774
  H        13.6377514967       -2.4955445576       -6.9411500865
  H        14.5177899479       -1.4202533598       -7.7322242645
  C        12.3730422838       -1.4246943287       -8.2057201206
  H        12.5322931971       -2.3226969691       -8.7698754055
  H        12.4747046960       -0.6246356834       -8.9015915350
  H        11.4285503640       -1.4201677036       -7.7067200438
  H        -4.1011564623       13.3535068729       15.9492170877
  C        -3.0833488985       13.6240699456       16.0178087079
  H        -2.4263756407       12.7318688794       16.2614804131
  C        -2.9728650571       14.7396831502       17.1182219888
  C        -2.7271849760       14.1787866457       14.6875491468
  C        -3.3100631874       14.3010212480       18.5308109225
  H        -2.0156086428       15.2332733163       17.0597160364
  H        -3.6302582428       15.5840804016       16.8306340164
  H        -3.0962451301       13.4656151824       13.8989776942
  H        -3.1287172192       15.2227967468       14.4148012408
  H        -1.6286074499       14.0769998678       14.6948585897
  C        -2.0783339252       14.1509906280       19.4985483570
  H        -3.9467295813       13.3794438079       18.5801597991
  H        -3.9120988491       15.0976177127       18.9594486559
  C        -2.6010803959       13.5609684197       20.9147238336
  H        -1.2868536997       13.5033132898       19.0803233198
  H        -1.7244575459       15.0761002689       19.8741793301
  C        -1.4273084284       12.9645797228       21.7454592112
  H        -3.3505045193       12.7993538543       20.7569902058
  H        -3.1393247938       14.4450012670       21.3424684272
  C        -0.3722609990       13.9114600726       22.2784673216
  H        -1.7667873365       12.3253219129       22.5643603941
  H        -0.8759726830       12.2489082364       21.1375806844
  C         0.8327160773       13.1793978254       22.9042735672
  H        -0.0188338260       14.4609447796       21.3300318894
  H        -0.7994526366       14.6101774277       22.9079795608
  C         1.3048517931       11.9077773149       22.2228388974
  C         0.4367941265       12.3997289720       24.1314390707
  C         1.9911276851       14.1299682791       23.2063964047
  C         1.2529125362       10.8196153140       23.0700067666
  C         1.8666641316       11.5386203656       20.9720461898
  C         0.6772334908       11.1292345341       24.2395162202
  C        -0.1019811906       13.0301024806       25.2471433617
  H         2.3870655995       14.5628616651       22.2361541381
  H         1.6828386810       14.9048506501       23.8555333684
  C         3.1454879455       13.3226497384       23.8581806834
  S         1.8562887036        9.3266227160       22.3999739411
  C         2.1935956393       10.2105951690       20.9504724854
  H         1.9254007614       12.2343695356       20.1544618077
  C         0.4625773881       10.4619170823       25.4706496148
  H        -0.1590966294       14.0575527848       25.0857330773
  C        -0.4380100130       12.3805592514       26.4470510274
  H         3.6115551240       12.5638657501       23.2681242897
  H         2.7687439016       12.8992986780       24.7610004170
  C         4.3189047391       14.2435849808       24.1619567653
  C         2.6212994294        9.4860744708       19.6798631590
  C        -0.1393456157       11.0693516902       26.5924419000
  H         0.7394356044        9.4241099516       25.6400660968
  C        -0.7925007030       12.8095090440       27.6845107023
  H         5.0332245081       13.6066778024       24.7199768586
  H         4.0032716820       15.0005399160       24.8619209200
  C         5.1101954596       14.7718275868       23.0035042053
  C         2.5868571131        8.0599441672       19.4883166255
  C         3.0139945196       10.3744794650       18.5572060957
  C        -0.4880853310       10.3739982648       27.8944183726
  C        -0.9575931602       11.7182340826       28.5070702509
  S        -1.1447334437       14.4132312473       28.3773192322
  H         5.8341704784       15.4441890606       23.3565982081
  H         4.4591438104       15.4322462448       22.4250426447
  C         5.8232794667       13.7863401281       22.1108634271
  N         2.1943087873        7.1600832564       20.4448869422
  C         2.8576733187        7.5033111463       18.2664203796
  C         3.3249723228        9.8065515459       17.3052012791
  H         3.0782551937       11.4405504845       18.5972197394
  C         0.6517522931        9.8400607632       28.6828889623
  C        -1.5966040303        9.3754267822       27.6472256891
  C        -1.3002708075       12.2357996890       29.7567833042
  C        -1.5404412764       13.6341721281       29.8979188859
  H         6.8241362928       14.1576865787       22.0697338323
  H         5.7189410221       12.8447533464       22.5722897561
  C         5.3406377076       13.6995160481       20.6411178853
  S         1.9948587015        5.6896811597       19.7104843183
  N         2.5206911700        6.1935263531       18.2584577313
  C         3.2013547005        8.3075229442       17.1439651381
  H         3.5009659907       10.5184631079       16.5034364946
  H         0.8721715779        8.8386654283       28.3094013694
  H         0.3239628671        9.6468381929       29.7343520367
  C         1.8904800634       10.7901968480       28.6497084005
  H        -1.3878333608        8.5981545226       26.8463357383
  H        -1.7448654203        8.7464346656       28.5141533030
  C        -2.9596055381        9.9549645366       27.2901371615
  H        -1.2814942925       11.5509355721       30.6065892982
  C        -1.8902415274       14.2990455319       31.2073005917
  H         4.5680237608       14.4364376791       20.4681566171
  H         4.9160798452       12.7486805398       20.5526952203
  C         6.4130974951       13.7993037797       19.4968996692
  C         3.3239856964        7.6273823179       15.9103433481
  H         2.3236004525       10.8384760031       27.6592700690
  H         1.7056395798       11.7638738468       29.1965812591
  C         2.9934417312       10.0666375964       29.3424460079
  H        -2.8760325557       10.6519043669       26.4428853703
  H        -3.2990566521       10.4500019129       28.2070336118
  C        -3.9598861523        8.8654700342       26.8621616838
  C        -1.8814619173       15.7115457527       31.2860647542
  C        -1.9940502172       13.5271889041       32.4338911608
  H         5.8569465881       13.5389187409       18.5880877166
  H         6.5197922432       14.9097661306       19.5145419477
  C         7.7068044674       12.9997819776       19.7876492833
  H         3.3314341694        6.5313536945       15.9152746936
  C         3.5869490595        8.0315585761       14.6381573210
  H         3.5760809864        9.5171681922       28.5841456500
  H         2.5260357987        9.3073775542       29.9561543551
  C         3.9624045559       10.9636632083       30.0536711205
  H        -3.7818120636        8.3378313595       25.9206761256
  H        -4.0388800124        8.1892468473       27.7002257416
  C        -5.3545908924        9.4986723651       26.7461392805
  N        -1.6595357886       16.5840518808       30.2629256060
  C        -2.0419271165       16.3187644977       32.5515451531
  C        -2.1341258757       14.1266000888       33.6961525967
  H        -2.0069853532       12.4392443651       32.2979668230
  H         8.3622654370       13.5445713006       20.4802094517
  H         7.5609615275       12.0187807212       20.1662939257
  H         8.3126644656       12.8445600370       18.9249421188
  S         3.8678288092        9.6149938515       14.1189423297
  C         3.6266951924        6.9765407037       13.6086723202
  H         3.9597912048       11.8415989549       29.4139368469
  H         3.5123950506       11.4000931621       30.9622994030
  C         5.3660964091       10.4127135034       30.3337419974
  H        -5.3303536285       10.4373644265       27.3566781454
  H        -5.9731757419        8.7588632566       27.1933300745
  C        -5.7557480534        9.8008028384       25.3503661448
  S        -1.7520611126       18.0652466735       30.8653534583
  N        -1.9665742354       17.6837984901       32.4524793230
  C        -2.2731763818       15.5840169666       33.8107955305
  H        -2.3115631793       13.5044885474       34.5706808665
  C         4.1763304714        8.8382830478       12.5372509114
  N         4.0369797338        7.5475324892       12.4349790424
  O         3.6154719167        5.7288388552       13.7967328829
  H         5.8929560230       11.3171444900       30.7442954994
  H         5.8838776503       10.2387462578       29.4442698510
  C         5.3037949338        9.2815679906       31.3305690599
  H        -5.0979773258       10.5780778505       25.0262863175
  H        -5.7636841394        8.9729431649       24.6795195147
  C        -7.1284253954       10.3772065649       25.4467914275
  C        -2.4485932478       16.2947554218       35.0298226234
  S         4.5429798217        9.8774228405       11.2029486553
  C         3.9630449678        6.8854669271       11.1387623660
  H         6.0837421051        9.3011578330       32.0842466360
  H         4.4229367243        9.4236202167       31.8786939090
  C         5.1976455846        7.8340895474       30.7743359214
  H        -7.1114520699       11.2460938022       24.8703906720
  H        -7.3123684578       10.7037650373       26.4518412925
  C        -8.2910395112        9.4790999848       25.1075276016
  H        -2.2569592191       17.3491631472       34.8932601706
  C        -2.9844562100       15.9569901109       36.2708339452
  H         4.7598509668        7.2035544161       10.4499774755
  H         4.1118401308        5.8140163906       11.2219124508
  C         2.5996078604        7.0493771344       10.5089061568
  H         5.5302327222        7.7742424428       29.6432694042
  H         4.1341307574        7.6389066659       30.7816085729
  C         6.1661925127        6.9328508186       31.4864238067
  H        -8.2614745424        9.1383385035       24.0887970328
  H        -8.2131465851        8.5286943183       25.6153625694
  C        -9.6040485671       10.2237100009       25.2856915779
  S        -3.6461187229       14.4244941442       36.8304174195
  C        -3.1378058432       17.1330170754       37.1995199936
  H         2.4104632747        8.1733608011       10.2186517838
  H         2.3518732301        6.4457272092        9.6497189842
  H         1.9250825201        6.7431256391       11.3600257250
  H         5.9923231297        6.7951136760       32.5634090599
  H         7.1999097840        7.2330668164       31.2492630011
  H         6.2408976972        6.0283005974       30.9122027567
  H        -9.7643565221       10.7122743850       26.2454144573
  H       -10.5010654371        9.6699736182       25.0765582605
  H        -9.5646718535       11.0500814937       24.5472908097
  C        -4.0137132109       15.3214719825       38.2710875160
  N        -3.8081872005       16.6168795081       38.2321317671
  O        -2.9538846739       18.3044399076       36.9089859262
  S        -4.6273221108       14.5807133024       39.7951757003
  C        -4.0847699895       17.4811246934       39.3310055775
  H        -4.5138425106       18.4745959253       39.0804628200
  H        -4.9447379589       17.1992215946       39.9624329386
  C        -2.8603956142       17.7393224163       40.1157497926
  H        -3.0485455328       18.2319552720       40.9988658078
  H        -2.5062542905       16.8176297146       40.5601181311
  H        -2.1307440187       18.1483502400       39.5002674850
