352
i=
  H         4.6067845677        1.3734973782       12.5837773852
  C         3.7646306118        2.0973283727       12.5988959305
  H         4.1868608616        3.0930654651       12.8057784876
  C         2.7828990106        2.1100308227       11.3668654591
  C         2.8804081742        1.8045890677       13.8983970465
  C         3.5741136718        2.4354267427       10.1305704135
  H         1.9701152952        2.8652891296       11.4837536583
  H         2.2514037984        1.1137728075       11.3358287106
  H         3.5137247414        1.4018656628       14.6710532697
  H         2.1576280976        1.0196266810       13.7616959424
  H         2.3695714918        2.6788715334       14.2881245131
  C         4.6727081830        1.4039504966        9.8286882739
  H         2.7458212732        2.4397886813        9.3838732806
  H         4.0594111656        3.4122304482       10.1689059429
  C         5.1867369410        1.6493044309        8.4163618408
  H         4.2346491785        0.3928207965        9.9998825949
  H         5.4554079190        1.4667058816       10.5053243203
  C         6.4806621482        2.6095349292        8.4187799231
  H         4.4949598438        2.2675666702        7.8912400167
  H         5.2080179587        0.8124122885        7.8877864817
  C         7.7847114530        1.9857193296        8.9350319707
  H         6.6620091282        2.9352930102        7.4408235847
  H         6.1600687816        3.3948705368        9.0013291281
  C         9.0126670302        3.0093216807        9.0744314395
  H         7.9910373296        1.2140199542        8.2238665616
  H         7.5658793034        1.4539052846        9.8891575255
  C         8.5370778007        4.2540753792        9.7214520123
  C         9.3892234700        3.7154484430        7.8199476231
  C        10.1923414571        2.4301389378        9.8951994375
  C         8.7145895739        5.3958217794        8.9910065473
  C         8.1379985096        4.5734559910       11.0015986704
  C         9.1897026050        5.0771322643        7.7403154312
  C         9.7780375053        3.1320158855        6.6553720911
  H         9.8510570662        2.4015727907       10.9667647997
  H        10.4763932563        1.4496290062        9.6120818176
  C        11.4514040628        3.3479687253        9.9794968881
  S         8.2829182148        6.8398576132        9.7252198004
  C         7.9554697036        5.9243143265       11.1520492953
  H         7.9200114076        3.8021443865       11.7153903474
  C         9.5388553766        5.7415151578        6.5663775670
  H         9.7949724778        2.0559061115        6.6748319558
  C        10.1163021590        3.7593461731        5.4751992078
  H        11.0059803529        4.2193412353       10.5110880424
  H        11.7439190616        3.6091126199        9.0209270407
  C        12.5215051659        2.8392978752       10.9062544643
  C         7.5445407955        6.6193558488       12.4762111082
  C         9.9662892269        5.1023365276        5.3666782551
  H         9.5626360076        6.8678364302        6.5899612741
  C        10.5154183383        3.3216176366        4.2346550564
  H        13.4098903987        3.3521792567       10.5523264201
  H        12.6938244335        1.7908177748       10.7732960074
  C        12.2961362185        3.1276015496       12.3427366866
  C         7.4595435670        8.0309348597       12.6208330660
  C         7.2636862109        5.7943964398       13.6376277337
  C        10.2428231241        5.7741004680        4.0635345039
  C        10.5759568130        4.4285445820        3.4097378881
  S        10.7902819427        1.8112719747        3.5024518447
  H        13.0819373388        3.7903506662       12.5464528624
  H        11.3966915039        3.5607862948       12.6759593242
  C        12.4878355534        1.9140373769       13.1425449033
  N         7.7856206637        8.9780640490       11.6718906132
  C         6.9693984058        8.5865516823       13.7916185163
  C         6.9347789785        6.3540499024       14.8446898420
  H         7.4362360811        4.7282721503       13.5471226706
  C        11.4971385006        6.6761047680        4.2741734790
  C         8.9842739213        6.4884672284        3.4402352574
  C        10.9492721953        4.0451506824        2.0888637225
  C        11.0052632521        2.6645557509        2.0045167854
  H        13.4310507545        1.4610720439       12.9314905980
  H        11.6428034732        1.2774792709       12.7663017967
  C        12.2398261188        2.3265023939       14.6012751369
  S         7.3526372458       10.4528344176       12.2886632460
  N         6.8901587146        9.9754504503       13.7367798528
  C         6.7659544896        7.8154571793       14.9996034053
  H         6.8964884127        5.6389771612       15.6654825489
  H        11.1995326652        7.5742626766        4.7879914264
  H        11.7941448254        7.0153071759        3.2882289042
  C        12.7687335184        6.0410960516        4.9031155690
  H         8.8041900630        7.3410210889        4.0268176202
  H         9.3053492196        6.9099132815        2.5021193821
  C         7.8778302254        5.4578857251        3.0530285225
  H        11.0520967733        4.7548140349        1.3187014771
  C        11.3126520389        1.8732953308        0.7642840299
  H        12.3568987435        3.4212730043       14.7077921223
  H        11.2138453197        2.0239390144       14.6680902826
  C        12.8427127530        1.5158982952       15.7600527397
  C         6.5165981605        8.5081621591       16.1936086351
  H        12.4517366508        5.6088492838        5.8653500023
  H        13.0024303307        5.2973908274        4.1937760141
  C        13.9869958101        6.9468435696        5.1025807167
  H         7.5570640495        4.9602376934        3.9448411936
  H         8.2797104600        4.6951274476        2.4253611179
  C         6.6862013829        6.2070006880        2.4578609549
  C        11.4179014899        0.5033850189        0.6382516043
  C        11.7382811586        2.5468706150       -0.4913189919
  H        13.8667847020        1.1734103026       15.7125897474
  H        12.2131771184        0.5905338062       15.7035413419
  C        12.5759058785        2.2810163577       17.1124941639
  H         6.4390492696        9.6301223675       16.1060712302
  C         6.2848644675        8.1550992555       17.4945005059
  H        13.8906403306        7.4321156098        6.1094084236
  H        14.0166193041        7.8324439512        4.4365769328
  C        15.2064813923        6.0291786522        5.0747972079
  H         6.3970188295        7.0572686864        3.0327835890
  H         7.1327954592        6.6994675118        1.5923157451
  C         5.5535898682        5.2214048200        2.1849389379
  N        11.2221782299       -0.4139381171        1.6667499951
  C        11.7744461921       -0.1611883021       -0.5169634748
  C        11.9870435107        1.9329349418       -1.7118623505
  H        11.6007181594        3.6340051036       -0.5394208911
  H        12.8283796625        3.2835370214       17.0483158420
  H        12.9663095680        1.8155002188       17.9649264298
  H        11.5074512740        2.2676522562       17.1710301241
  S         6.0852657231        6.5889088023       17.9728750325
  C         6.2816096244        9.1677382264       18.5872836883
  H        14.9899227134        5.2094004625        5.7155562220
  H        15.3122558781        5.6677555301        4.0914219913
  C        16.5684050559        6.6282147592        5.5474716188
  H         5.3953971711        4.7632160176        3.1370919176
  H         5.9379702924        4.5056428855        1.4343280036
  C         4.2868116216        5.9058505703        1.6139551602
  S        11.3358808781       -1.9643334161        1.1439562824
  N        11.8948242086       -1.5249220679       -0.3539370785
  C        12.1216953441        0.5092332975       -1.7446656205
  H        11.9997745498        2.4507814149       -2.6825364572
  C         5.9557155840        7.1340389192       19.6110338922
  N         5.9119563821        8.4938405461       19.7203790566
  O         6.3301670012       10.3684072556       18.4048593840
  H        17.3185647689        6.6100835604        4.7858623127
  H        16.3671002340        7.7195957046        5.7026520418
  C        17.0988445387        5.8717680825        6.7941794811
  H         4.4691848076        6.0376833861        0.5774856581
  H         3.5045129246        5.0997952049        1.5939713774
  C         3.5598491830        7.1761966106        2.1724366557
  C        12.4840195680       -0.2648793631       -2.8971660270
  S         5.5803342080        6.1370591148       21.0649558494
  C         5.8117232592        9.1153507394       21.0396911705
  H        16.6173194383        6.1359004952        7.6880211719
  H        16.9903405806        4.7907044435        6.6273177476
  C        18.5752207276        6.1622836644        7.0135102503
  H         4.0573052217        7.5659606643        3.0934812375
  H         2.5747509927        6.8493979850        2.5786087525
  C         3.3840237753        8.3987715366        1.2084100786
  H        12.0200841648       -1.2588488196       -2.9345442510
  C        12.9852760901        0.0401712327       -4.1495888368
  H         5.0913702190        8.6038214315       21.6509543949
  H         5.3522263032       10.1153017361       20.9268342855
  C         7.2017043978        9.1829716778       21.6649195175
  H        18.8875624367        5.8833411534        8.0407319712
  H        18.6856798159        7.2703736626        6.8933478269
  C        19.5803333141        5.5561640791        6.0624411870
  H         2.9052377062        8.2342111009        0.2104205526
  H         2.7047211047        9.1586442386        1.7394354122
  C         4.6231164318        9.2410655491        1.1296194341
  S        13.5537676320        1.6154325169       -4.5850692682
  C        13.1127718752       -1.0484016683       -5.1754643747
  H         7.9967016680        9.6290854186       21.1234635987
  H         7.5284630951        8.2139771231       22.0332205493
  H         7.0899085986        9.7881456676       22.5516822800
  H        20.4473435234        5.0641552890        6.4115098652
  H        19.1352244729        4.9464528934        5.2464431722
  H        19.9363834305        6.3025436824        5.3900642150
  H         5.3198235425        9.2893048355        1.9368972668
  H         5.2730472131        8.7789444110        0.3680226347
  H         4.4135714608       10.2555398331        0.7978964435
  C        13.7983236943        0.9031427298       -6.1888897230
  N        13.6036249204       -0.4626385715       -6.2942226944
  O        12.8121648202       -2.2326372447       -5.0311665523
  S        14.4738311335        1.8183196890       -7.6221231284
  C        13.5364462569       -1.1443117271       -7.5554472389
  H        13.7461293250       -2.1430438469       -7.4896156206
  H        14.1736085070       -0.7548388929       -8.3385887126
  C        12.0262174103       -1.0253288945       -8.0174312837
  H        11.3571760475       -1.1487073888       -7.1554614372
  H        11.8254742748       -1.7937694990       -8.7836322623
  H        11.8378837132       -0.1387281883       -8.5384083330
  H        -3.4790688977       14.3094039009       16.5728352805
  C        -3.0716026804       13.3262069687       16.4938452243
  H        -3.9096796234       12.6579166725       16.6393162350
  C        -1.9031981971       13.1834380200       17.4912665067
  C        -2.5471851852       13.2052806013       15.0721681722
  C        -2.2382425318       13.7677369100       18.8201257713
  H        -1.7295780812       12.0972087370       17.6112003655
  H        -0.9928042038       13.6394244942       17.1615777031
  H        -3.2681308091       13.4364023323       14.2575609670
  H        -1.6299826450       13.7681062343       14.8083982347
  H        -2.1964483576       12.2118147829       14.9713872815
  C        -1.9744556675       12.6819018619       19.8307186353
  H        -3.2031772721       14.2665300663       18.8693305109
  H        -1.5710951057       14.6126927492       18.9292123518
  C        -2.4391545559       13.1481007926       21.2862886014
  H        -2.6742481682       11.8515506189       19.4809063869
  H        -0.9036164904       12.4491410215       19.7947744019
  C        -1.5930148762       12.4087877642       22.3017097197
  H        -3.4729527692       12.9279895538       21.4519258993
  H        -2.3088591331       14.2458866717       21.3702960975
  C        -0.2988519475       13.2817863386       22.2996361634
  H        -2.2300833007       12.3281310490       23.1676786910
  H        -1.3685653530       11.3852479850       22.0264640270
  C         0.8306344816       12.6980996734       23.0363835553
  H         0.0433020156       13.5624837635       21.3308973496
  H        -0.4363685695       14.2069367258       22.8495470051
  C         1.2260015531       11.3788347006       22.3756251517
  C         0.3996447666       12.0617853333       24.3200657118
  C         2.0419287178       13.7094897147       23.1161143238
  C         0.9965597803       10.3138243283       23.2386122897
  C         1.8061274398       10.9060018037       21.1850988181
  C         0.4430493024       10.7444255602       24.4085345389
  C        -0.0290604939       12.7206829009       25.5108831685
  H         2.2449467066       14.1634784948       22.1535454837
  H         1.8248613354       14.6302566420       23.6932983712
  C         3.3247876743       12.9948355203       23.7543310312
  S         1.2916196539        8.8034184494       22.5156497092
  C         1.8722520371        9.5478389230       21.0977036154
  H         2.0983055061       11.6438312782       20.4519348856
  C         0.0819407569       10.1516304670       25.5592115509
  H         0.0096494386       13.8689052972       25.4488474876
  C        -0.5230138039       12.0765967739       26.6322577795
  H         3.5730880149       12.0963601965       23.1688968329
  H         2.9722377156       12.7049327992       24.7064828732
  C         4.6148012352       13.8816404214       23.9391864387
  C         2.4652517898        8.7576950829       19.9327757931
  C        -0.4944979945       10.7411538393       26.7439884426
  H        -0.0269622424        9.1140410937       25.4925415744
  C        -0.8965649780       12.4878395355       27.9479975151
  H         5.3999750097       13.4077788762       24.4854271370
  H         4.3493033684       14.7268645372       24.6327671182
  C         5.1926713564       14.4944349300       22.6571503863
  C         2.4571953285        7.3281727228       19.7859655899
  C         2.9176303983        9.5398389301       18.7867991919
  C        -0.8770284609       10.0253332436       28.0039409792
  C        -1.1352010674       11.3839107483       28.6867716085
  S        -1.1143546498       14.0044802761       28.7330009676
  H         5.9834436247       15.1545050295       23.0731068951
  H         4.3932646943       15.1804978139       22.1934546969
  C         5.7029752678       13.5197735558       21.6600251331
  N         2.0461991738        6.2929455234       20.6912273492
  C         2.8575824370        6.7965836866       18.5815617788
  C         3.1425266727        9.0610491340       17.5567010471
  H         3.0695449483       10.5928573363       18.8814096014
  C         0.1364261538        9.1935230064       28.8538480986
  C        -2.2031573442        9.2742452704       27.7873866945
  C        -1.5229702480       11.7636974436       29.9935684939
  C        -1.4518244415       13.1522350040       30.1585165279
  H         6.7228850840       13.8102685553       21.5053945674
  H         5.7361888020       12.6450196252       22.1783706944
  C         4.9459563577       13.3410826322       20.3383136608
  S         2.2889250268        4.8315535446       19.9960442445
  N         2.7634849769        5.3430319408       18.5274750400
  C         3.0936183882        7.5692237472       17.3918048118
  H         3.4840269889        9.6748509161       16.7519909945
  H         0.5336685147        8.4128239707       28.2738781735
  H        -0.2017050185        8.8549089641       29.8250135234
  C         1.4221772310       10.0495970077       29.2424825038
  H        -1.9713021503        8.4644095072       27.0997451421
  H        -2.6346485348        8.8258420176       28.6359144562
  C        -3.3104919922        9.9928312474       26.9352439227
  H        -1.6732428138       10.9717864665       30.6981523820
  C        -1.7169994677       13.8874386637       31.4882382975
  H         3.9103399194       13.6676166407       20.5152813239
  H         4.8015950330       12.3458571427       20.2188256032
  C         5.6623894906       13.9379630833       19.0695934423
  C         3.3643407377        6.8899716922       16.1810486683
  H         1.5883575695       10.7579791931       28.4653842266
  H         1.3323839577       10.6991776181       30.1114861654
  C         2.6948465469        9.2058240653       29.4015400545
  H        -3.0148836851       10.2949610039       25.9025482023
  H        -3.6324599060       10.9882956140       27.3551472478
  C        -4.5153260139        9.0974835832       26.8820249408
  C        -1.8122424278       15.2964406402       31.6682147583
  C        -1.8707688065       13.1157019556       32.7301380429
  H         5.1350664163       13.7915427219       18.0941647419
  H         5.7448422302       15.0576340352       19.0938665022
  C         7.0715658268       13.4076716856       18.8595049578
  H         3.4518744456        5.7929664786       16.2755191746
  C         3.5123176408        7.3493325398       14.8834849804
  H         3.1627591026        9.1658946540       28.4237404928
  H         2.4275601800        8.2529977880       29.8012009585
  C         3.7219252617        9.9026063136       30.3212508722
  H        -4.2791907923        8.0742051910       26.5140518388
  H        -4.8532729463        9.0019120112       27.9316501273
  C        -5.5423714167        9.7460074014       25.9931597148
  N        -1.6462261786       16.2463538445       30.6257883653
  C        -2.0253769163       15.8760009688       32.9036139393
  C        -2.0456297550       13.7174301538       33.9562130061
  H        -2.0689427862       12.0313989961       32.6607225006
  H         7.2368436323       13.1336545022       17.8049264765
  H         7.7133624337       14.2384232325       19.0997517158
  H         7.2945765904       12.5632785702       19.4799797564
  S         3.5671772908        8.9881310854       14.3632006320
  C         3.5657825255        6.3199856871       13.8140988682
  H         3.9079124670       10.9548495230       29.9543372502
  H         3.3424382672        9.9566374916       31.3667167969
  C         5.1318037456        9.1856395971       30.3289714677
  H        -5.4025971127        9.3610715093       24.9959680215
  H        -5.3600093535       10.8565448263       25.8682925794
  C        -6.9491270903        9.5810986551       26.5701085415
  S        -1.5249292775       17.6961721635       31.2736852767
  N        -1.9642030923       17.2623904407       32.8155487597
  C        -2.1521321892       15.1467733932       34.1195185545
  H        -2.1176783490       13.0431608839       34.8641017362
  C         3.8429334631        8.2942438710       12.7426509516
  N         3.8615105761        6.9635501973       12.6544066381
  O         3.6245043028        5.1368065864       14.1301590735
  H         5.8256123565        9.8674569676       30.8347603124
  H         5.4855982971        8.9827604974       29.3314637722
  C         5.2025231579        8.0040611400       31.2691755988
  H        -7.0634619351        8.7319019218       27.1902941191
  H        -6.9995035623       10.4434604706       27.2253262947
  C        -8.0070203018        9.7548151059       25.4376788167
  C        -2.4475300253       15.8508530746       35.3181797029
  S         4.3263986229        9.2536894274       11.3676069194
  C         3.9726251026        6.2252601658       11.4178220274
  H         5.6999654285        8.2615913928       32.2403365962
  H         4.1926926935        7.7204186434       31.4264391938
  C         5.9140841404        6.8042737461       30.6025443655
  H        -7.7163248045        9.1493796182       24.4690713188
  H        -8.0720707924       10.8370239448       25.0440703216
  C        -9.3517080388        9.1367431130       25.7143121996
  H        -2.2903456579       16.9209678904       35.2704997512
  C        -3.0508866261       15.5122508143       36.4843974960
  H         4.8779500501        6.5678085014       10.8330042812
  H         4.1304546923        5.2457207456       11.7490444870
  C         2.6519970113        6.3099077692       10.5830850921
  H         6.8800240755        7.1255399121       30.2255248069
  H         5.1834676412        6.4522925865       29.8130487368
  C         6.2486052463        5.6211816789       31.4620589107
  H        -9.9471066280        8.9035053576       24.7630969117
  H        -9.2890955568        8.1659798401       26.3032290195
  C       -10.2557045234        9.9058853712       26.6243831592
  S        -3.5302710136       13.9674620993       36.9358529889
  C        -3.0752360044       16.5395648144       37.5729416263
  H         2.6554044425        5.5584929191        9.7699972025
  H         1.7394223340        6.2725305759       11.2355207988
  H         2.5832511293        7.3104797620       10.0261718063
  H         7.1412515877        5.7030263773       32.1231531038
  H         6.3663326195        4.7816262839       30.7764448645
  H         5.3624987915        5.3629702021       32.0499045057
  H       -10.7170874920        9.0852691355       27.1394217494
  H       -10.8389971975       10.5768564986       26.0120333642
  H        -9.9081657210       10.5312742520       27.4292599169
  C        -3.9765092285       14.7492351262       38.4915469951
  N        -3.6948355995       16.0408970848       38.6316529151
  O        -2.6516513111       17.6993161955       37.5007340609
  S        -4.5587757543       13.8928978350       39.9197699559
  C        -4.0854440984       16.7719494042       39.8499217035
  H        -4.1212814873       17.8702291047       39.5937535168
  H        -4.9939587574       16.4197272115       40.2415684463
  C        -2.9519973675       16.6801516351       40.8315486613
  H        -2.5337925523       15.6788904056       40.9345261412
  H        -2.2038842220       17.4018568754       40.5713125682
  H        -3.3581909253       16.9791040935       41.8098685689
