352
i=
  H         4.6461072039        1.3154712002       12.4918765684
  C         4.0919352212        2.2467096515       12.4980762219
  H         4.7223868271        3.1499312030       12.6468789147
  C         3.1971909536        2.2097690316       11.2739822246
  C         3.3206498952        2.4178370568       13.8036523533
  C         3.8902073889        2.6973019762        9.9864381193
  H         2.2272357636        2.6765260026       11.4047954910
  H         2.9712779637        1.1913842217       11.0572661930
  H         2.7692626391        1.5844823515       14.1382708439
  H         2.4809315983        3.0862205529       13.5703648550
  H         3.9697399748        2.8859771230       14.5572531274
  C         4.7841704381        1.5425007406        9.4899152369
  H         3.1665170624        2.8944609441        9.2321898553
  H         4.5573788446        3.5512374847       10.1193994122
  C         5.4283446001        1.7950779648        8.1035000240
  H         4.2286336614        0.5922701482        9.4205662696
  H         5.4975245522        1.3825379991       10.2754102581
  C         6.7929914482        2.6091283413        8.2735735840
  H         4.7291006575        2.2938549678        7.4752759209
  H         5.4849572106        0.8563811266        7.5940098809
  C         7.9875639057        1.9261648247        8.7520906500
  H         6.9527940735        3.1595785261        7.3087115654
  H         6.5766490625        3.3355989369        9.0397589517
  C         9.2562886688        2.8785448822        9.1315484341
  H         8.3054357250        1.2163654246        7.9485036923
  H         7.7730398251        1.3971628122        9.6895075512
  C         8.8609742969        4.2041613798        9.7328664833
  C         9.7076841953        3.5762038537        7.9656741414
  C        10.3939043848        2.0920139510        9.8696102460
  C         9.0308162609        5.3149726230        8.9685962267
  C         8.5242497483        4.5266459286       11.0171360646
  C         9.7021009036        4.9028490253        7.8056791000
  C        10.2133845959        2.8662782096        6.8532526449
  H        10.0835380239        1.5369059762       10.8110730270
  H        10.6975790795        1.2994407241        9.2208392341
  C        11.4758398383        3.0754365157       10.3158114851
  S         8.4273461289        6.7701112904        9.6505717973
  C         8.3469692585        5.8466146732       11.1523372455
  H         8.3266366933        3.6673166202       11.6890590939
  C        10.1589269187        5.4500732003        6.6408958952
  H        10.1812832650        1.7772536607        6.9675307083
  C        10.7033544632        3.3935879782        5.7266785344
  H        11.0681445364        3.8987775655       10.9276538506
  H        12.0410070373        3.6084541873        9.5505149928
  C        12.6260602153        2.3347236825       11.0901200763
  C         7.8258039568        6.5034001925       12.3905263247
  C        10.7351818603        4.7252379190        5.5832367019
  H        10.0079773539        6.4719224249        6.5516492218
  C        11.0476840139        2.8485013772        4.4831973273
  H        13.6046558490        2.8522239118       11.1371388904
  H        12.7110354267        1.3911012644       10.5324185893
  C        12.2527836863        1.9842528319       12.4988267785
  C         7.7643282308        7.8953298516       12.7208238047
  C         7.2436955175        5.6867777804       13.4943137540
  C        11.1028285307        5.2832090748        4.2444158888
  C        11.3525942284        3.8703587670        3.6000377587
  S        11.0501407134        1.2844561967        3.7423651949
  H        11.5730836380        2.7340766755       12.9548051840
  H        11.8713615636        0.9441854126       12.5167036721
  C        13.4819695124        1.8426361468       13.4022798285
  N         8.0135889752        8.9025049295       11.7771663149
  C         7.4696734032        8.3553499564       13.9819013370
  C         6.7989227841        6.1734356196       14.7941386659
  H         7.0596908995        4.6127860816       13.3020553724
  C        12.3034084885        6.2397848552        4.3607548332
  C         9.9490621886        5.9672779355        3.5451152695
  C        11.7716033373        3.3667561151        2.3703778059
  C        11.5748670117        2.0332012863        2.2826100693
  H        14.0882243076        2.7312672407       13.3308074008
  H        14.0359036395        0.9851163961       13.1247922863
  C        12.9963971610        1.5792118086       14.8505951872
  S         8.0139472187       10.3177927724       12.5469035624
  N         7.6782383097        9.7278916663       13.9997581317
  C         7.0531019416        7.5994724218       15.0963444557
  H         6.3299755255        5.4963644201       15.4961105990
  H        11.9290546808        6.8481551045        5.1220949745
  H        12.5495758867        6.7665208120        3.4333345849
  C        13.5818828450        5.4968829300        4.8312856432
  H         9.5825825929        6.8355897612        4.0562074437
  H        10.2396311067        6.5118307491        2.6664710145
  C         8.7877610330        5.0998421542        3.0878633101
  H        12.1775498069        4.0605361964        1.6431086009
  C        11.7699762798        1.2724229608        1.0070935377
  H        11.9566845711        1.2720626296       14.8781127118
  H        13.7122674681        0.8946419557       15.3165026498
  C        13.1446164519        2.8981808489       15.7075326697
  C         6.7910401438        8.3267653664       16.3297857753
  H        13.3424050747        4.9405007810        5.6996862052
  H        14.0173854440        4.8512528829        4.0336165460
  C        14.5817064474        6.5478171659        5.3285608172
  H         8.3837202009        4.5688503655        4.0258185031
  H         9.0166920469        4.3396122611        2.3658132014
  C         7.6030205960        5.9026193631        2.5330005864
  C        11.7224094805       -0.1273174263        0.8554537289
  C        12.1380866705        2.0213923882       -0.2077128781
  H        12.3798683320        3.5249010894       15.3161228759
  H        14.0976227547        3.3720128884       15.6004984983
  C        13.0562001624        2.7016510642       17.1859675124
  H         6.9000636190        9.3883234665       16.3059187146
  C         6.4671242081        7.7744753466       17.5539627821
  H        14.2702031390        6.9856074540        6.3200738246
  H        14.6279687813        7.2707764391        4.5807014346
  C        16.0336717712        6.0665655844        5.4732269581
  H         7.3292720377        6.5878200579        3.3451848448
  H         7.8899835311        6.4884739481        1.6928965272
  C         6.4419509180        4.9088946425        2.3268523154
  N        11.5753183681       -1.0734934889        1.9051246529
  C        12.1341598595       -0.7715978623       -0.3219247457
  C        12.5193507062        1.3446668412       -1.3543348977
  H        12.1784348297        3.1123479535       -0.0876096025
  H        12.0410199288        2.3750069203       17.5335442454
  H        13.3762014031        3.6868188282       17.7363420236
  H        13.8692695842        1.9310689370       17.3954073503
  S         6.1531912637        6.1177469702       17.8485882327
  C         6.2459823841        8.6820079740       18.7223012809
  H        16.2607933650        5.1026822547        4.9767155838
  H        16.6698176019        6.6419167945        4.8285187603
  C        16.5027643626        6.1400904821        6.9181682575
  H         6.0581969796        4.5045509438        3.2627743339
  H         6.7322786724        4.1142656919        1.6252731737
  C         5.2756982691        5.5661753073        1.7103367797
  S        11.7029078610       -2.5409949109        1.2973199618
  N        11.8764654324       -2.1144093951       -0.2355720739
  C        12.4958115407       -0.0968795954       -1.4848228763
  H        12.6204434454        2.0050661713       -2.1757379070
  C         6.0475371933        6.6586656191       19.5350187553
  N         5.9206022193        7.9345487509       19.7754401045
  O         6.3011439512        9.9205542953       18.5887309619
  H        16.7827439628        7.0990428003        7.3655702120
  H        15.6388450334        5.8044129675        7.5103144221
  C        17.5976948277        5.2760823581        7.1999002413
  H         5.7954610696        6.0229256538        0.8687308117
  H         4.5630873429        4.8446171917        1.3142030658
  C         4.4665716992        6.6096530711        2.5837914863
  C        12.7372723836       -0.8432249211       -2.6424478110
  S         5.6029232729        5.5061734328       20.8873496135
  C         5.9158239422        8.4907816550       21.0980850804
  H        17.5407698331        5.1340016622        8.3101575020
  H        17.5344653223        4.2976082648        6.6855189118
  C        19.0009062239        5.7967740012        6.9126872031
  H         4.9973280978        6.8543807689        3.4648809171
  H         3.5214127569        6.1729798479        2.8316186173
  C         4.2066717491        7.9369467742        1.8084195721
  H        12.5233997683       -1.9274188247       -2.6037532211
  C        13.3374231033       -0.5033906325       -3.8724735052
  H         5.1689978881        7.9904473301       21.7865887354
  H         5.4682975026        9.4954858655       20.9409942633
  C         7.2466449226        8.5000742247       21.8035640767
  H        19.7301615588        5.0979277666        7.3471361209
  H        19.2557341688        6.7382567970        7.3318201104
  C        19.4657542111        5.9059865923        5.4901804054
  H         5.0619090688        8.2651449825        1.1290731768
  H         3.3478331977        7.6814909315        1.2006813415
  C         3.7026034627        9.1265806960        2.7088395210
  S        13.7870684556        1.0584774491       -4.3894132894
  C        13.3754936768       -1.4846535044       -4.9822522938
  H         8.0145736597        8.7398888805       21.1025135842
  H         7.3664766001        7.5819089467       22.3083270096
  H         7.2578442357        9.3010368333       22.5859622256
  H        20.4807894263        6.3901908618        5.5725218378
  H        19.4460173698        4.9123408507        4.9252344627
  H        18.8058203652        6.5279676058        4.9194762963
  H         2.8243952868        9.5244839526        2.2206255396
  H         3.4143051711        8.7630181256        3.6623918553
  H         4.4866570758        9.9520033887        2.8212966828
  C        13.9776337829        0.4010853647       -5.9693591556
  N        13.8895219009       -0.9614200766       -6.0892941205
  O        12.9137039955       -2.5984638494       -4.9005510559
  S        14.6790333463        1.3659783759       -7.3234187677
  C        13.9369560796       -1.7220851043       -7.3343937187
  H        13.9652781380       -2.7724815128       -7.2514330977
  H        14.8598432316       -1.3712368751       -7.9059680486
  C        12.6592677250       -1.4655197488       -8.0937306179
  H        12.5508447485       -0.5015239571       -8.5159375052
  H        11.8022188217       -1.6624807062       -7.4769102602
  H        12.6184352907       -2.1495267280       -8.9788658186
  H        -3.5001787221       14.6064814293       16.3297033233
  C        -3.1580373036       13.6322798572       16.5438219698
  H        -3.9682208684       13.0993028320       17.0459887600
  C        -1.9327149662       13.7992279959       17.5187660961
  C        -2.7722733814       12.9912904223       15.1593828387
  C        -2.4938235208       14.0082389217       18.8767145748
  H        -1.3320732075       12.8604162543       17.4461398200
  H        -1.2886288287       14.6548127568       17.3026416026
  H        -3.1398420184       12.0174152332       14.9682802856
  H        -3.1370211289       13.6659960772       14.3678058052
  H        -1.7192725995       12.9798256458       14.8674764211
  C        -1.4175025815       13.9494608297       20.0348027068
  H        -3.2296989199       13.2527419314       19.1845233859
  H        -3.0175096482       14.9055788252       19.0153833396
  C        -2.0037980061       13.7671877450       21.4421543886
  H        -0.6066268045       13.2151446454       19.8174266631
  H        -0.8219488403       14.8731033665       19.9625783086
  C        -1.1262620228       13.1645415460       22.4993232678
  H        -2.8222768992       13.0848722610       21.5662668357
  H        -2.4232418695       14.6808545203       21.8153015871
  C         0.1896826422       13.9197941518       22.7240066711
  H        -1.6489158787       13.3142256510       23.4010581610
  H        -1.0577302212       12.1153860186       22.2403815638
  C         1.2129402839       13.0452500934       23.4509365961
  H         0.7408713652       14.2274264001       21.7812099899
  H        -0.0260049603       14.7791150287       23.2646023223
  C         1.5579293157       11.7749189609       22.7278893735
  C         0.7360331081       12.3970020672       24.6985149971
  C         2.5622059623       13.8031835348       23.7255297201
  C         1.2754636246       10.6449366882       23.4668772400
  C         1.9956671202       11.3773838498       21.4396839690
  C         0.8149336628       11.0222416100       24.7407959205
  C         0.3225692736       13.0696649613       25.8172635073
  H         2.7336089995       14.4866634599       22.8735185478
  H         2.2615497588       14.3171877079       24.6329677451
  C         3.8846787059       13.0060379286       24.0547302069
  S         1.6003998150        9.1232720832       22.7016074848
  C         2.1129750138       10.0543858058       21.3482959095
  H         2.0881572437       12.1339599867       20.6713819148
  C         0.3994108854       10.4299632411       25.8993539785
  H         0.1506368231       14.0761112106       25.7272366505
  C        -0.0399633127       12.4237173941       26.9766764855
  H         4.1469348346       12.2041285716       23.3204718360
  H         3.6896192149       12.4329263511       24.9950215228
  C         5.1059934249       13.9485579923       24.2810903890
  C         2.4886495619        9.2539186355       20.1127496231
  C        -0.0024358020       11.0914107288       26.9849168823
  H         0.3973985641        9.3107269351       25.9565339774
  C        -0.5207559252       12.8257238589       28.2302683143
  H         5.8643565218       13.3963716324       24.8618376112
  H         4.8751519732       14.7646456536       24.9374207047
  C         5.8253664193       14.4396125290       23.0404940824
  C         2.4211102407        7.8361143965       19.8519774800
  C         3.0941628321        9.9878360717       18.9148528014
  C        -0.5715165239       10.4717411485       28.1904960370
  C        -0.8140663489       11.7370225504       28.9831576487
  S        -0.9857074683       14.2580632395       28.9573659092
  H         6.5275684504       15.2213034077       23.4932417366
  H         5.1012264344       15.0438264122       22.4336032877
  C         6.4724585832       13.3466358194       22.2271830513
  N         2.0158251845        6.8874152102       20.7919531905
  C         2.8281526960        7.2446975457       18.6327218771
  C         3.3073288487        9.3767143267       17.6980832759
  H         3.2631325598       10.9994342569       19.0849724176
  C         0.5356097442        9.5946924149       28.9010305666
  C        -1.8740961441        9.6880952319       27.9587811312
  C        -1.3192618963       12.0697930201       30.2563882441
  C        -1.3017021434       13.4529357295       30.3973198864
  H         7.4954179200       13.6683144681       21.9994657069
  H         6.5646470718       12.4716930659       22.8333619729
  C         5.7141548664       13.0035001747       20.9496584463
  S         2.1529661896        5.3942010933       20.1267975388
  N         2.7309288781        5.8903997234       18.6360691371
  C         3.1742183302        7.9392216466       17.4684337175
  H         3.6472781958       10.0653761833       16.8934669872
  H         0.7024042565        8.6954164224       28.2530184042
  H         0.0048974492        9.1850655158       29.8028848612
  C         1.8035862248       10.2401193363       29.3631475290
  H        -1.7937320121        8.7314851693       27.3898351405
  H        -2.1951790038        9.3641071333       28.9476384172
  C        -3.0773829965       10.4563510870       27.3201175979
  H        -1.5889193545       11.2765726676       30.9334531271
  C        -1.6577558033       14.2249339096       31.6710802241
  H         4.6817646646       13.2094857924       21.1559122738
  H         5.6654594669       11.9375835712       20.6746488328
  C         6.1442676895       13.7860077694       19.6673314250
  C         3.3143054734        7.2779344639       16.2235836917
  H         2.2400308991       10.7501003957       28.5560010270
  H         1.5580980788       11.0210996763       30.0572426676
  C         2.8487424671        9.2871929619       29.9965616530
  H        -2.7333336869       10.8133369315       26.3889536857
  H        -3.2224388720       11.3479533279       27.9157798414
  C        -4.2322723748        9.6161522346       27.0060379761
  C        -1.7072070969       15.6271953593       31.7500689284
  C        -1.8504755097       13.4792563220       32.9650567436
  H         5.3133028516       13.6359382815       18.9816574493
  H         6.2916990486       14.7843648713       20.0593616734
  C         7.4322812563       13.1149729889       19.0492643282
  H         3.0965213771        6.2570121236       16.2805412725
  C         3.6333263088        7.7593273958       14.9548445045
  H         3.4452541500        8.8778300185       29.2009741024
  H         2.2817161343        8.3683904241       30.3729980068
  C         3.5742178148        9.8629589499       31.1860959013
  H        -4.0805652569        8.8651971727       26.2192909995
  H        -4.6544721936        9.1119347032       27.8652492034
  C        -5.3484490610       10.4422057625       26.4817457559
  N        -1.4219184844       16.5788546736       30.7641932534
  C        -1.9316097692       16.2562922766       32.9358372696
  C        -2.0241254323       14.1685536173       34.1536718604
  H        -1.8400157618       12.4246732272       32.9736476490
  H         7.3588400121       12.9065252617       17.9801153052
  H         8.3329335379       13.7200393600       19.1428559052
  H         7.6878232774       12.0933059447       19.3825314770
  S         3.8926588660        9.3888873540       14.4640522586
  C         3.5941978840        6.7343028294       13.8665325051
  H         3.5044032898       10.9457567419       30.9808697817
  H         3.1222640562        9.8043995379       32.1696227684
  C         5.0878183968        9.5956356519       31.3438477398
  H        -5.0042209833       10.9016214544       25.5530778509
  H        -5.5913748243       11.2564725932       27.1044581062
  C        -6.5752079192        9.7424527604       26.0825928928
  S        -1.7789585911       18.0438981679       31.2754975876
  N        -1.9823084935       17.6292242918       32.8496572003
  C        -2.0873058788       15.6650079052       34.1821734501
  H        -1.9168186531       13.6256001825       35.1394334255
  C         4.0638632168        8.6784184671       12.8479787966
  N         3.8814301610        7.3234266583       12.7255727196
  O         3.4302370170        5.5571438301       14.0327575199
  H         5.3986059354       10.4808456783       31.9869768942
  H         5.4676619650        9.7425417430       30.3929658582
  C         5.5644260371        8.2557311885       32.0203717394
  H        -6.3052614954        9.0419591798       25.4026194701
  H        -7.1861268549        9.2496233624       26.8619066230
  C        -7.5089144425       10.7221113998       25.4029309982
  C        -2.3512271833       16.4909147828       35.3546021822
  S         4.6915427885        9.5706685724       11.4952141648
  C         3.9152578682        6.6570610711       11.4162165215
  H         6.4540735880        8.3295881315       32.6582857496
  H         4.6822646565        8.0861404922       32.6851619507
  C         5.7104636793        7.1015517684       31.0355231895
  H        -7.0527555832       11.3218648639       24.6614895290
  H        -7.7761363922       11.5459581058       26.0760053692
  C        -8.6782747430       10.0019513369       24.8155822448
  H        -2.2008617918       17.5617204931       35.2366869543
  C        -2.9354463954       16.2552542052       36.5787341170
  H         4.6099598321        7.1279465039       10.7406136505
  H         4.2577131055        5.6389451282       11.4757009547
  C         2.4705969386        6.6630776210       10.9412182331
  H         5.3791252748        7.4379970261       30.1242332157
  H         5.0694950922        6.2659903292       31.3236939206
  C         7.1368835354        6.6082004597       30.9452009863
  H        -8.8832248676       10.4867432606       23.8892159534
  H        -8.4043991510        8.9707597619       24.4776629347
  C        -9.8354509472        9.9123671317       25.8470966174
  S        -3.4259536732       14.7558488399       37.1362862008
  C        -2.9265819397       17.3668461870       37.5693518885
  H         2.2496806300        6.2529404758        9.9345590344
  H         1.8286487218        6.2654204561       11.7313937066
  H         2.1592159457        7.6791070823       10.8338437595
  H         7.2964337396        5.9617921597       30.1358477390
  H         7.3796272056        6.2706304703       31.9753360580
  H         7.8065511324        7.4551292438       30.7989158799
  H        -9.5855025586        9.2805244607       26.6917464644
  H       -10.6333968391        9.4029069523       25.3672800232
  H       -10.2608701241       10.8765923271       26.1716302877
  C        -3.6166530219       15.5262201952       38.6591608598
  N        -3.5063599155       16.8452085103       38.6649703161
  O        -2.7195238077       18.5540259257       37.3192408627
  S        -4.2448633630       14.8174887077       40.1711503153
  C        -3.6140848565       17.6958372354       39.8609294831
  H        -3.5523144528       18.7418347191       39.5228178019
  H        -4.5314766147       17.4881030231       40.4560363612
  C        -2.3486567911       17.5320341623       40.7315815577
  H        -2.6089709889       16.9073995122       41.6067213219
  H        -1.5787014471       17.1289894517       40.1280264547
  H        -2.0231453684       18.5008757916       41.1125298991
