352
i=
  H         2.5692341223        0.8331599491       13.7247820028
  C         3.3158342641        1.3678345297       13.1301381525
  H         4.1784317718        0.6735446671       12.8617231437
  C         2.7389776187        1.7009092357       11.7236725004
  C         3.8795795672        2.4518348633       13.9223211824
  C         3.8175258739        2.0498690462       10.6673669314
  H         2.0802108726        2.5180990772       11.8649970442
  H         2.1750796258        0.8781308080       11.3963904808
  H         4.3119135702        2.0118807239       14.8053019239
  H         3.1487930699        3.1438306928       14.4255157158
  H         4.6064297768        3.0692480355       13.5016152667
  C         3.8977472689        1.0518691968        9.5671141127
  H         3.5308493363        3.0540957542       10.3177510964
  H         4.7414139707        2.0806686096       11.2053510204
  C         4.6793971621        1.5511715261        8.3464996237
  H         2.8453438586        0.8221225746        9.2206334300
  H         4.2707972051        0.0926009617        9.9052913152
  C         5.9436586175        2.4546485669        8.3803174752
  H         4.0131521780        2.0194710013        7.6896413019
  H         4.9418340165        0.6483479936        7.6904443305
  C         7.2155808161        1.7302428895        8.8841253449
  H         6.0829721123        2.8619921285        7.3836369101
  H         5.5782960356        3.4062273102        8.8387645669
  C         8.3733338515        2.6568098414        9.2950144026
  H         7.4627807022        0.9189003383        8.1638045742
  H         6.8158267813        1.3030382648        9.7400792401
  C         7.9645924951        3.9463990052        9.9333463082
  C         8.9353473060        3.3242089962        8.0431737973
  C         9.5439189056        2.0053476842       10.0679394648
  C         8.2804536319        5.0164037596        9.1263784102
  C         7.3617547485        4.3075084680       11.1309723330
  C         8.8978749372        4.6531221479        7.9575901034
  C         9.5437462809        2.7278452991        6.9484968144
  H         9.0670050254        1.4521601144       10.9208434226
  H        10.0684169028        1.1658746292        9.6545006264
  C        10.7463804637        2.9506347921       10.5160147984
  S         7.7195460655        6.5215824307        9.7396519438
  C         7.4147077940        5.7105977720       11.2404902006
  H         6.9820901054        3.5757443169       11.8093138712
  C         9.3160218314        5.2801821065        6.8196717952
  H         9.7407148396        1.6263534500        6.9220372095
  C         9.9017603046        3.3051965522        5.7884851892
  H        10.3725820299        3.9264148563       10.7077684636
  H        11.3311048340        3.2412542356        9.6022603504
  C        11.8074669156        2.3210830447       11.4808898728
  C         7.2000228434        6.4984317160       12.5037225955
  C         9.7543901222        4.6707187839        5.7015933007
  H         9.4376770831        6.3101803834        6.6270970884
  C        10.4061260145        2.9875137569        4.5517702181
  H        12.8168736716        2.7202607227       11.1547050577
  H        11.8308137172        1.2732971181       11.3494890263
  C        11.6360125863        2.6385174297       12.9627216715
  C         7.2570749653        7.9311726129       12.6867746706
  C         6.9803257510        5.7667349896       13.7279105377
  C        10.2903937562        5.4497109236        4.4817560946
  C        10.5243405378        4.1411328189        3.7588164188
  S        10.9609681600        1.4955183284        3.8305895354
  H        11.1687030011        3.6132950806       13.2285416922
  H        10.9299524736        1.9059680284       13.3188682640
  C        12.9009262854        2.4764266884       13.7927278458
  N         7.5867922365        8.8939214119       11.6849493316
  C         7.0797480601        8.5736289946       13.9096218001
  C         6.7259283353        6.3866277305       14.9010195366
  H         7.0972572134        4.6818037978       13.7594886610
  C        11.5680686831        6.2330702885        4.7122444892
  C         9.1484656765        6.3880843428        3.9371605590
  C        10.9608672193        3.7431884221        2.4276839353
  C        11.2176800297        2.3987387071        2.3374219313
  H        13.4946905931        3.3566888977       13.6729383149
  H        13.4409810425        1.5382023110       13.6420683488
  C        12.5219099585        2.4792709751       15.2657239378
  S         7.7547707544       10.3713540843       12.3548269224
  N         7.3268709348        9.9436584221       13.9157599079
  C         6.8432998599        7.8438438788       15.0608422730
  H         6.4900945134        5.8230510756       15.7671814207
  H        11.3815183031        7.1590763817        5.1548067677
  H        12.1003597482        6.4555956202        3.8182997723
  C        12.5912275932        5.4481451403        5.5548505425
  H         9.1270911298        7.2827279406        4.6068523173
  H         9.4867016326        6.9831883654        3.0453671723
  C         7.7391444721        5.7550547811        3.6988736856
  H        10.9976334133        4.5161611550        1.6366411044
  C        11.6352820664        1.6778504805        1.0234891997
  H        12.1110258874        3.4672581024       15.4949329014
  H        11.7852258912        1.6778278262       15.5238482215
  C        13.7450935400        2.1824944529       16.1714278107
  C         6.5628904108        8.5271887724       16.2753240186
  H        12.1370540058        5.0840249731        6.4645110702
  H        13.0427913154        4.6489102468        4.9174930434
  C        13.7776366345        6.3899700103        5.7959075735
  H         6.9566371371        6.2394508860        4.2887069115
  H         7.6936775015        4.6130295039        3.9124733059
  C         7.4255032200        5.8197681867        2.2105246687
  C        11.7348062974        0.2623980612        0.8679648007
  C        11.9058680805        2.4562410196       -0.2341870396
  H        14.5416819927        2.8930480701       15.8517234981
  H        14.1223186515        1.1824252109       16.0804194529
  C        13.4548065421        2.4940443446       17.6809777396
  H         6.4438928188        9.5735015710       16.1067901239
  C         6.3012351150        8.2040176418       17.6024283570
  H        13.4945918542        7.3335766131        6.2513238854
  H        14.0708624875        6.7489196022        4.7970579825
  C        14.9407348669        5.6687948262        6.4357717812
  H         7.5475643830        6.8618666063        1.8534053303
  H         8.2122700076        5.2397923618        1.7105905589
  C         6.0799261388        5.1312340875        1.9283598122
  N        11.4828072582       -0.6686686878        1.9043825355
  C        12.1355090713       -0.3711128494       -0.2620277338
  C        12.2259470816        1.7779568050       -1.3721435975
  H        11.7420010055        3.4783967432       -0.1739174154
  H        14.0725069399        3.3394241576       17.9380662198
  H        13.7958254314        1.7076663226       18.3024896445
  H        12.3737526711        2.6539026451       17.8024437424
  S         6.0180888879        6.5872608477       18.0978260268
  C         6.2736304810        9.2304472992       18.5939689276
  H        15.2647497320        6.2024500107        7.2974964023
  H        14.7810830171        4.7094191829        6.9408444963
  C        16.0893889235        5.3778561972        5.4472144824
  H         5.9945768066        4.1396899157        2.3682848913
  H         5.9327384871        4.9955401476        0.8704457039
  C         4.8884270400        5.9701359307        2.3535475119
  S        11.6130970487       -2.2071703675        1.3024277523
  N        12.2455025292       -1.8147788541       -0.1570448700
  C        12.5002629903        0.2939774416       -1.4179688452
  H        12.1979373769        2.3500886140       -2.2987633677
  C         5.8953396298        7.2876544182       19.7167147286
  N         6.0044521932        8.6755073418       19.8028267095
  O         6.3774919596       10.4261953372       18.3716721239
  H        15.8126861428        4.5751641305        4.8161462056
  H        16.2533620822        6.3389097841        4.8478102919
  C        17.4045129517        5.0765471940        6.1110519179
  H         4.0597742652        5.7321698491        1.7178963957
  H         4.4851139299        5.6649202103        3.3335271807
  C         5.1259188167        7.4869641121        2.2591774384
  C        12.8074540129       -0.5436073341       -2.5896910626
  S         5.4232462532        6.4102960936       21.1778998301
  C         6.1502715431        9.5094666991       21.0007225749
  H        17.1958039248        4.5350987622        7.0565226498
  H        17.9977696376        4.4795084407        5.5231984911
  C        18.2605732861        6.3144515802        6.4558050643
  H         5.5067495109        7.6846033216        1.2145835715
  H         5.9023707213        7.7218438015        3.0152411201
  C         3.9986457276        8.2013932192        2.8340984265
  H        12.4100078598       -1.5826846142       -2.4967804814
  C        13.4524288363       -0.1430931823       -3.7065300731
  H         5.6004970074        9.0739343989       21.8176160862
  H         5.6947485777       10.4285444818       20.8438011344
  C         7.5536623263        9.8062858304       21.4794597850
  H        18.0584022795        6.7975743146        7.3949271179
  H        18.1669467903        7.0863639920        5.6400898102
  C        19.7501791065        5.9501116954        6.4975218723
  H         3.4471566674        7.6962017821        3.6320608950
  H         4.4189764454        8.9834295367        3.4098003774
  C         3.0157797387        8.7958416955        1.8552703216
  S        14.1193628278        1.3411725700       -4.1246216384
  C        13.5262263508       -1.1809758867       -4.7875020244
  H         7.7090992090        9.3600047189       22.4129500205
  H         7.5075079918       10.8832855949       21.7207063910
  H         8.2808036211        9.6237269253       20.6940434515
  H        19.9124292297        4.8157733829        6.5408454032
  H        20.1832756321        6.3203014439        5.5737946405
  H        20.2026972531        6.4553512244        7.3245550337
  H         2.9482298920        9.8568179411        2.1134872153
  H         3.3743972807        8.7940342657        0.7921798306
  H         2.0493876125        8.2413369248        1.9433439011
  C        14.3992857596        0.7188723067       -5.7204148945
  N        14.1098859204       -0.6090700781       -5.8512242946
  O        13.1327567080       -2.3216406587       -4.5930618135
  S        15.0882288297        1.5747437222       -7.1191238295
  C        14.2861621058       -1.3862268898       -7.0597032516
  H        14.3497534866       -2.4265396870       -6.8166106423
  H        15.2081189609       -1.1054710980       -7.5275877655
  C        13.0741768700       -1.1498555751       -7.9754129329
  H        13.2925977550       -0.3685096905       -8.6741038732
  H        12.2876595387       -0.7938040177       -7.4001998762
  H        12.9285761947       -2.0641347686       -8.5279203850
  H        -2.9823329871       15.1264961740       16.7461132536
  C        -2.9555740860       14.0392581873       16.7320677927
  H        -3.9836418935       13.6128548812       16.9996397294
  C        -1.8827294765       13.4693784802       17.6405465896
  C        -2.7646032135       13.5803680757       15.2937863173
  C        -2.2599859698       13.7209089500       19.0951059932
  H        -1.8936885537       12.3393990703       17.3766753187
  H        -0.8601775735       13.8542370635       17.3611834762
  H        -1.9803013950       12.8517808565       15.3783338245
  H        -3.6134200709       13.0150191669       14.8802853759
  H        -2.5158544681       14.3214532505       14.5772445041
  C        -1.7504388111       12.6730816631       20.0368061397
  H        -3.2677548320       14.0296783184       19.2479944253
  H        -1.7056134580       14.5762107577       19.4377969327
  C        -2.1777070864       12.8845289979       21.4845026626
  H        -2.1620374514       11.7523730186       19.6879416757
  H        -0.7212645201       12.4475145185       19.9080186916
  C        -1.0384617812       12.5565993768       22.5139281047
  H        -3.0950536994       12.3227734138       21.7707929975
  H        -2.4731221139       13.9511682407       21.6562443133
  C         0.1871173838       13.5929543402       22.7056184753
  H        -1.5945419302       12.5181271830       23.4410224270
  H        -0.7440182581       11.4871384118       22.2313497001
  C         1.3705241390       12.9424630203       23.4280861793
  H         0.5420878011       14.0455355298       21.7733410532
  H        -0.0826381246       14.4283030517       23.3401155153
  C         1.7786771009       11.6082048212       22.7515744911
  C         1.0124484927       12.2232562602       24.7310958703
  C         2.5762447663       13.9267079368       23.5225606357
  C         1.6159377050       10.5070040265       23.5791163884
  C         2.1534598785       11.2344238156       21.4509507030
  C         1.1689671316       10.8807470994       24.8253113458
  C         0.5668923814       12.8185088102       25.8881172968
  H         2.7540529579       14.3991016143       22.5668865490
  H         2.2628071300       14.7013650515       24.2158308690
  C         3.9279043044       13.3348232757       24.0573772592
  S         2.0448791433        9.0291630847       22.8266448056
  C         2.2719457977        9.8680325965       21.2921570678
  H         2.2633099186       11.9828320010       20.7037010156
  C         0.8263351396       10.2094306876       25.9762130268
  H         0.5375359238       13.8926998964       25.9799750186
  C         0.1605419420       12.1128772563       26.9942411791
  H         4.1950369961       12.4945958902       23.3839851920
  H         3.7622583920       12.9142492514       25.0449715212
  C         5.0656124307       14.3290758381       23.9007057251
  C         2.5124196077        9.2140147881       19.9435009366
  C         0.3165229838       10.8020906620       27.1143351189
  H         0.9835697824        9.1202689658       25.9608515869
  C        -0.1548941584       12.5006320487       28.2660692090
  H         5.9600857704       14.1156928812       24.3613562305
  H         4.6419755296       15.2278594266       24.3337660900
  C         5.4000367236       14.5938941527       22.3816192058
  C         2.5402104344        7.8207318948       19.6802693926
  C         2.7487308564       10.0419375113       18.7090996749
  C         0.0278716684       10.1154873629       28.4071769793
  C        -0.3066703853       11.4376231846       29.0427035827
  S        -0.4820834323       14.0833035417       28.9668125630
  H         5.7497285397       15.6088112737       22.2864160044
  H         4.6320338941       14.5477481278       21.6485711294
  C         6.5320745175       13.7438914084       21.8392624344
  N         2.2162191041        6.8567969590       20.6337251270
  C         2.7199623492        7.2534181206       18.4020182704
  C         3.0011647785        9.4648661273       17.4398807697
  H         2.8540759122       11.0925985657       18.8829580725
  C         1.2468854825        9.3202745223       29.0155482035
  C        -1.3514784027        9.3396787485       28.2282056811
  C        -0.6973820974       11.8567872427       30.3215334498
  C        -0.8565689507       13.2277165865       30.4726021094
  H         7.3850503774       14.2639723142       22.1062143143
  H         6.5109026608       12.6614579903       22.2091190383
  C         6.5688563698       13.7028300719       20.2957099954
  S         2.3326305660        5.3321176910       19.9291463657
  N         2.6037992039        5.8149282773       18.3947823150
  C         2.9694144124        7.9644218501       17.2259487382
  H         3.2729788521       10.0632437693       16.6397781039
  H         1.5613696637        8.7022402408       28.1859851801
  H         0.9556935329        8.5449193035       29.6907320151
  C         2.3260939353       10.1852647894       29.6510263318
  H        -1.1674896115        8.4115315444       27.6956931165
  H        -1.6302283947        8.9977440903       29.2484837530
  C        -2.5472368922       10.1034866807       27.6923524061
  H        -0.6872838567       11.1267471167       31.1767034787
  C        -1.0666877656       13.8735842784       31.8418126554
  H         6.1208683393       14.5785405703       19.8775546100
  H         6.0150705183       12.8386036221       20.0285507431
  C         8.0160266690       13.5514997174       19.8423921676
  C         3.2351086232        7.2322657403       15.9868420956
  H         2.7229440549       10.8916474238       28.8392221684
  H         1.8684467047       10.6990295068       30.4987837619
  C         3.4365934020        9.3588007319       30.2463116165
  H        -2.3384553921       10.6342633217       26.7835511917
  H        -2.6981077054       10.8720700798       28.4700503914
  C        -3.7002721073        9.1079412576       27.5041395896
  C        -1.2132358527       15.3043848187       32.0297932678
  C        -1.5257377659       13.0874829006       33.0446780604
  H         8.4896495392       14.4923932932       20.0859413369
  H         8.5572383312       12.7468472569       20.2842557425
  C         8.0793751326       13.4415159292       18.2920067310
  H         3.1438585149        6.1816191589       15.9688463949
  C         3.4058180351        7.6478092461       14.6912029589
  H         3.6321826176        8.4825084569       29.6689964185
  H         3.1245552750        9.0300228255       31.2020238201
  C         4.6752867101       10.2092010170       30.5046606261
  H        -3.5758796802        8.4529837819       26.6713361805
  H        -3.8282367510        8.5230212451       28.4212491090
  C        -5.0543349276        9.7388634114       27.3963980859
  N        -0.9034245704       16.2163205132       31.0509257597
  C        -1.6233399076       15.9615886787       33.2349161797
  C        -1.9099451281       13.7298427367       34.2379249732
  H        -1.4637519091       12.0299464502       32.9968868093
  H         8.6657180346       12.5575402119       17.9805218096
  H         7.1230804696       13.4499161217       17.8010965499
  H         8.5650329507       14.2978359242       17.8675377892
  S         3.6223415852        9.2871758543       14.3288660981
  C         3.3911610961        6.6860790001       13.5550939229
  H         4.5459323424       11.0317891252       29.7680458631
  H         4.5131911486       10.6565184470       31.4801676020
  C         6.0046756979        9.4201660906       30.4309209469
  H        -5.1306054805       10.5095010515       28.1515493079
  H        -5.8839762810        9.0696210272       27.6979815278
  C        -5.2559025958       10.1908876613       25.9714132775
  S        -1.1028444692       17.7062164278       31.6311875830
  N        -1.5830519162       17.3329089053       33.1346880754
  C        -2.0252453218       15.2211913732       34.3877415747
  H        -1.9512174065       13.1388647507       35.1194229127
  C         3.8375421758        8.7347676546       12.6939166483
  N         3.6024719971        7.4057612575       12.4614945685
  O         3.2104391440        5.4677028218       13.6255831024
  H         6.8791536740       10.1143165691       30.5896202916
  H         6.2104746523        9.1690027047       29.4166771455
  C         6.0586634913        8.2243334213       31.3389639045
  H        -4.4764339436       10.9568635008       25.7042215896
  H        -5.0652238433        9.3847010568       25.2844672009
  C        -6.5979672154       10.7926721509       25.6718881139
  C        -2.3259011920       15.8795233560       35.5668608924
  S         4.2025067916        9.6897059217       11.2594168606
  C         3.6325418916        6.8237036816       11.1130487708
  H         6.5097019391        8.4945547023       32.3130894937
  H         5.0375830307        7.8668481443       31.6036699428
  C         6.7743675836        6.9665097395       30.7705089042
  H        -6.6142637092       10.8707246285       24.6151738536
  H        -6.6665947378       11.8708227141       26.0018731754
  C        -7.7705578073        9.9601599314       26.1621519554
  H        -1.8908424805       16.8787851646       35.6003613734
  C        -2.9429189284       15.4377458706       36.7378063703
  H         4.2905454881        7.2772823838       10.3424531234
  H         4.1005728563        5.8756770337       11.3286190781
  C         2.1737334237        6.6772486011       10.5508151552
  H         7.8497540250        7.1521885796       30.4877475717
  H         6.2863975610        6.7165092615       29.8086519217
  C         6.5990758128        5.8789594636       31.7940658162
  H        -7.7679701344        9.0760007248       25.5148700759
  H        -7.7807636484        9.6792958019       27.2049634482
  C        -9.1162847937       10.6480357389       25.8762003721
  S        -3.6325860470       13.9367545059       37.1409037622
  C        -2.8448341329       16.4269744691       37.8900600871
  H         1.8955604712        5.6399658755       10.7286742059
  H         1.5259676675        7.3275573198       11.1750179195
  H         2.0617567277        6.8632976255        9.4858349232
  H         7.0335556092        6.0979913797       32.7695233855
  H         7.1209715408        5.0680096851       31.2966570192
  H         5.6360039741        5.4818010663       32.0791686490
  H        -9.3764766625       10.5967128487       24.8678734362
  H        -9.1794849237       11.6992947622       26.1949241969
  H        -9.9054391472       10.1021576124       26.4140950725
  C        -3.9419594707       14.6399411402       38.8068306510
  N        -3.5236897113       15.9319305422       38.9668886429
  O        -2.1153217812       17.4565800019       37.8757227353
  S        -4.6366388987       13.7378786647       40.1712298087
  C        -3.6561341063       16.7145074192       40.1567478398
  H        -3.3915463560       17.7274805349       39.8098148785
  H        -4.6482716571       16.7400856445       40.5706279466
  C        -2.7050812147       16.2340959546       41.2703987062
  H        -2.9628363666       15.3067592492       41.6704508571
  H        -1.6064969207       16.2326748212       41.1040521537
  H        -2.7620529133       16.7920893165       42.2129050012
