352
i=
  H         5.0984021387        1.6749439081       12.4111419322
  C         4.2769513491        2.3335488965       12.6405108594
  H         4.7657983489        3.3069048432       12.6532951830
  C         3.2510822137        2.4682760137       11.4760190606
  C         3.7132906547        2.1362857133       14.0268788240
  C         3.9401943840        2.8562634196       10.1690294020
  H         2.4775017165        3.1672700889       11.7150702471
  H         2.7303913190        1.5377206731       11.2968881239
  H         3.3686507912        1.0764408771       14.1639317027
  H         2.9462665066        2.8869156206       14.2346470866
  H         4.5905043857        2.1759757374       14.7058376674
  C         4.5856574108        1.5855114435        9.6412680961
  H         3.1556018393        3.2353752455        9.5050563978
  H         4.6193652250        3.7024105126       10.3611579717
  C         5.2549155790        1.7651024311        8.1979898872
  H         3.7786794874        0.8086239832        9.4002132494
  H         5.2600843792        1.0030268284       10.3010689389
  C         6.5156922765        2.6331810679        8.2500380098
  H         4.5345164817        2.1113919827        7.4431571367
  H         5.5644241753        0.8002981341        7.7384607171
  C         7.7083686156        1.8525926307        8.8213599485
  H         6.7468415990        2.9281306897        7.2534409608
  H         6.2832345758        3.4951973588        8.8093224836
  C         8.9174584090        2.8310984119        9.2256056974
  H         8.1693466953        1.1520430422        8.1517757460
  H         7.5071395854        1.2774192831        9.7146737753
  C         8.5486428370        4.1933562795        9.9059914947
  C         9.5133589611        3.5269073476        8.0261866816
  C         9.9342465763        2.1289673728       10.0964788699
  C         8.9217239644        5.2724041340        9.1830537058
  C         7.9699670784        4.5477232602       11.1280701869
  C         9.5110596062        4.8827395068        7.9637049741
  C         9.9373808166        2.8459947574        6.8481222123
  H         9.5002322896        1.7981781323       11.0392437968
  H        10.3257091048        1.2435829948        9.5937108629
  C        11.1018051370        3.0249060486       10.5004614362
  S         8.5897828624        6.7340295403       10.0094748920
  C         7.9643110789        5.8941968076       11.3213662142
  H         7.8105574905        3.7606311314       11.8436006772
  C        10.0207209352        5.4456790617        6.8226001533
  H         9.8671267163        1.7928724745        6.8534590934
  C        10.3720623151        3.4610951162        5.7021546038
  H        10.6786153818        3.8594782334       11.1277409567
  H        11.6641435688        3.4492371459        9.6655133438
  C        12.0876028158        2.2510061853       11.3967722030
  C         7.5166317472        6.5287312552       12.6578827390
  C        10.3230182040        4.8092901878        5.6084043117
  H        10.0517426960        6.5642888738        6.8062588860
  C        10.8612912543        3.0331672851        4.5260596648
  H        13.0636702326        2.7224039280       11.4061622149
  H        12.3554978048        1.2977455352       11.0321910470
  C        11.7228679422        2.1594291040       12.8970438863
  C         7.4799409882        7.9078335344       12.9222826291
  C         7.1605492824        5.6298205198       13.8040807390
  C        10.7942382218        5.4498285742        4.3420864322
  C        10.9804141390        4.1296766087        3.6707499431
  S        11.2256089387        1.5264479782        3.7188245354
  H        11.4583724479        3.1770112653       13.1789457049
  H        10.8469655583        1.5109396961       12.8902169040
  C        12.8579444427        1.7923594579       13.8619365246
  N         7.7308063707        8.8972753133       11.9460839264
  C         7.3149930413        8.4521419112       14.1839311262
  C         6.9330181399        6.1906455021       15.0910150792
  H         6.9786035367        4.5813632419       13.6553685695
  C        12.0966189621        6.2398095354        4.4775876241
  C         9.6422151077        6.2461360886        3.7571522976
  C        11.2418945901        3.6823387496        2.3050131310
  C        11.4796920755        2.3165419638        2.2470834694
  H        13.2674879640        2.7268344325       14.2457194039
  H        13.7258107418        1.1963123189       13.4330736069
  C        12.3555266507        0.8406975007       14.9550344148
  S         7.8045644437       10.3482133873       12.6938795992
  N         7.4907552093        9.8244367132       14.2268801379
  C         6.9457692066        7.6566599213       15.3115554751
  H         6.7053985059        5.5685164497       15.9336964955
  H        11.9845799131        6.9536823050        5.3517810423
  H        12.1768907601        6.9304120763        3.6025232853
  C        13.3023686247        5.4216244467        4.7508069507
  H         9.4187933680        7.0202525036        4.4845085497
  H        10.1386511713        6.8699536659        2.9659666409
  C         8.4185462593        5.5392020508        3.1833871294
  H        11.3422268964        4.4402017130        1.5239949604
  C        11.7053328103        1.5730644793        0.9370336218
  H        11.6457951003        0.1938800662       14.5426989045
  H        13.1449834806        0.2210405064       15.2893820643
  C        11.7281772158        1.5670776140       16.0824621755
  C         6.7242005611        8.3447765828       16.5564350600
  H        13.1871384804        4.8710374974        5.7347682700
  H        13.4609314974        4.7590879726        3.9670209572
  C        14.5756912987        6.2931872253        4.9059836092
  H         7.9651172528        4.9970929944        4.0080083205
  H         8.5997408900        4.7454870769        2.4814627378
  C         7.5052227876        6.4347805226        2.3685369388
  C        11.7371104830        0.1910359135        0.8857526526
  C        12.0024494502        2.2651665771       -0.3109042265
  H        11.1456583593        0.9034673573       16.7475027790
  H        10.9259447077        2.2542217451       15.7465052332
  C        12.7255981522        2.4084336046       16.8743949988
  H         6.8224020333        9.3885200332       16.5740509235
  C         6.4146129869        7.9219647296       17.8039855532
  H        14.4056837956        7.1511964080        5.5681142214
  H        14.7602484234        6.8713458921        3.9565454245
  C        15.7546831847        5.3911962094        5.4666432371
  H         7.1977163977        7.2244535135        2.9950425661
  H         8.0609029600        6.9400506185        1.5479260579
  C         6.3183099723        5.6455583837        1.7915034121
  N        11.6224816629       -0.7014719961        1.9593237579
  C        12.1799977048       -0.4486450132       -0.2684168458
  C        12.3706700271        1.6441404921       -1.4836332142
  H        11.9836297671        3.3214240823       -0.3405161247
  H        13.6989798321        2.3223129405       16.5083277199
  H        12.6720268392        1.9560309984       17.9234600592
  H        12.5400849093        3.4841118746       16.7803114448
  S         6.2205879055        6.2837721793       18.3046490695
  C         6.2720854641        8.9072547410       18.9338778719
  H        15.4224507615        4.4327540266        5.9059854117
  H        16.1875609540        5.1865844794        4.5482288836
  C        16.6689058585        6.1480453613        6.4107874088
  H         5.7925204860        5.1197174796        2.5783358744
  H         6.7737749146        4.9073614850        1.1382660026
  C         5.2822193932        6.5602571971        1.0606565940
  S        11.7151561789       -2.2176773567        1.3153033542
  N        12.2208211779       -1.7984511735       -0.1137530013
  C        12.4469250398        0.1318272433       -1.5254604647
  H        12.4470027931        2.3035968887       -2.2733309215
  C         6.0615319007        6.8989517179       19.9098425352
  N         6.1109136592        8.2444797737       20.0413293547
  O         6.2018167875       10.1105513578       18.7408845163
  H        17.1687353576        7.0121374536        6.0269416502
  H        16.0242589807        6.4777630393        7.2133881492
  C        17.7020376324        5.1806535625        7.0461370747
  H         5.7965166511        7.0979442138        0.2705424137
  H         4.4222871448        6.0217509962        0.5517851267
  C         4.8033125055        7.6610435899        1.9311510512
  C        12.6847981239       -0.6557401675       -2.6552982197
  S         5.5618027309        5.9043233493       21.3339481188
  C         6.1078121214        8.9766578192       21.2818103163
  H        17.3918430511        4.7220457367        8.0328332998
  H        17.7826201631        4.3151502010        6.4088782996
  C        19.0358513920        5.8590114246        7.2045315455
  H         5.4713866874        8.4510304569        1.9996478156
  H         4.4542622139        7.4579927412        2.9228605494
  C         3.6298065483        8.3979331583        1.2229695465
  H        12.5514956865       -1.7228583289       -2.6086089802
  C        13.1716482048       -0.2722926505       -3.9071063724
  H         5.3558033799        8.5465313913       21.9392604173
  H         5.6658470454        9.9845175591       21.1843709204
  C         7.4455231884        9.0957482841       21.9271114493
  H        19.7626371982        5.4924653439        7.9152700846
  H        18.6905814506        6.8429093731        7.4007324952
  C        19.7293602816        5.8980460413        5.8874803412
  H         3.7777132804        8.3055905613        0.1254603103
  H         2.7002116618        7.9218417437        1.5243446859
  C         3.5389630826        9.8135117184        1.6304320529
  S        13.6820972398        1.2501038083       -4.4417932376
  C        13.2945149099       -1.3830947764       -4.8856136523
  H         7.5796087387        8.3116428022       22.7013140681
  H         7.4897149130        9.9981828195       22.4609465806
  H         8.3681594038        9.1016289374       21.3252836643
  H        20.3514188817        4.9894914066        5.7775445950
  H        18.9762329766        6.0737106852        5.0609243072
  H        20.4844492098        6.6597918379        5.8959791963
  H         2.9378644437        9.9954439346        2.5535310613
  H         4.4798824336       10.2325360453        1.8555150270
  H         3.2153104911       10.4594486900        0.8892005673
  C        13.8777524816        0.4631298238       -5.9916843705
  N        13.7358899149       -0.9142464835       -6.0116186591
  O        12.9136926397       -2.5498348988       -4.6791515833
  S        14.2385029049        1.1786054572       -7.5308322983
  C        13.7133039486       -1.6881270068       -7.2541550982
  H        13.8626608226       -2.7572750406       -6.9773426581
  H        14.5043323129       -1.4793192138       -7.8848000718
  C        12.3176948233       -1.5307032097       -7.9278685389
  H        12.3486611114       -0.6864384286       -8.6099886966
  H        11.5489894319       -1.4523767705       -7.2141051228
  H        11.9565285847       -2.4064867493       -8.5120929517
  H        -3.7031847762       15.1013389031       16.5790355253
  C        -3.2857209783       14.0619209196       16.5560681093
  H        -4.1865001554       13.4164016405       16.7593948288
  C        -2.1988196863       14.0280733510       17.6686637755
  C        -2.6587935337       13.6154817603       15.2002237843
  C        -2.7954638449       13.5928790057       18.9586867363
  H        -1.4084141657       13.2793562245       17.4673227647
  H        -1.7541400969       15.0006103332       17.6654170563
  H        -2.1517223861       12.6783663618       15.3818884583
  H        -3.4314322106       13.3302337661       14.4839044613
  H        -1.9367577666       14.2742770178       14.6638948642
  C        -1.8411092989       13.1208039832       20.0574640566
  H        -3.3760585289       12.7300363957       18.8769752669
  H        -3.4834189667       14.4183240093       19.2756387623
  C        -2.3830774327       13.4796144649       21.4442831460
  H        -1.6219104631       12.0492153221       20.1299040051
  H        -0.8663559639       13.6668316555       20.0276718075
  C        -1.5690808421       12.9901434474       22.5965381251
  H        -3.4079766472       13.0908940641       21.4442893878
  H        -2.4241951904       14.5385921439       21.3280738504
  C        -0.3064843919       13.7588766479       22.8827904617
  H        -2.0191135278       12.9800221972       23.5972918008
  H        -1.3584172413       11.9834582691       22.3346902255
  C         0.9418402519       13.0231673570       23.4449956757
  H         0.1077407103       14.3735826508       22.0053494056
  H        -0.5994555889       14.4941085732       23.6420724089
  C         1.3459790803       11.6805405823       22.7465623795
  C         0.5884384921       12.3309082357       24.6990647264
  C         2.1677159441       14.0268526495       23.6160970538
  C         1.1343134397       10.6088871827       23.6542599663
  C         1.9132485663       11.2447844689       21.5670039923
  C         0.6144269587       10.9988207231       24.8935486401
  C         0.2122242493       12.9759432404       25.9152897114
  H         2.3388801660       14.5459637937       22.6526585277
  H         2.0255571732       14.8313042730       24.2771546162
  C         3.4775548451       13.3597820578       24.1538192997
  S         1.5364979705        9.1036257287       22.9183201871
  C         1.9460466263        9.8843595508       21.4853009715
  H         2.1861672063       11.9577500977       20.8219436755
  C         0.2151236898       10.3354190463       26.0478421746
  H         0.1371863742       14.0527334557       25.8186099373
  C        -0.2460620625       12.3771080020       27.0700499306
  H         3.7325178978       12.6105492346       23.5076739397
  H         3.2174995777       12.9154725264       25.0761787944
  C         4.5428793731       14.3696282817       24.4627364963
  C         2.2656327793        9.2054482411       20.1683654488
  C        -0.2740259475       11.0342526186       27.1837285768
  H         0.2635652549        9.2079368671       26.0762586625
  C        -0.7018953908       12.8124178769       28.3412479817
  H         5.1996021291       13.8178923459       25.1177599225
  H         4.0889105469       15.2139542344       25.0540630705
  C         5.3360707591       14.8088059565       23.1626710573
  C         2.3619300992        7.8423490239       19.8937655098
  C         2.6427790886       10.0896827724       19.0276542499
  C        -0.7140095583       10.3783205168       28.4329916950
  C        -0.9779232833       11.7011932875       29.1293674549
  S        -0.9485196634       14.3222822798       29.1966376657
  H         5.9925998690       15.5747100374       23.4079086761
  H         4.7307648622       15.3635692998       22.4555449135
  C         6.0351900570       13.6758120150       22.4164210882
  N         2.0981547907        6.8412506322       20.8469639702
  C         2.6124918722        7.3232941888       18.6369068268
  C         3.0351645102        9.5469691673       17.8163055887
  H         2.9557458432       11.1220085838       18.9862488514
  C         0.4280936120        9.5138358505       29.0724364535
  C        -2.0097017379        9.5897002004       28.1494106928
  C        -1.2057072803       12.0886339204       30.4596967333
  C        -1.3307973187       13.4258780567       30.6264844194
  H         7.0226797205       13.9405412147       22.0274700924
  H         6.2025979942       12.8522097968       23.1584481412
  C         5.3751787987       13.2409203842       21.0884700768
  S         2.1766989025        5.4334982779       20.0466420207
  N         2.5114312342        5.9601024297       18.6386085638
  C         2.9398576556        8.0803447018       17.5451721528
  H         3.4274778294       10.1971510422       17.0747447976
  H         0.8353283219        8.7828425860       28.3890384969
  H         0.0169826587        8.9567570919       29.9398518621
  C         1.5326049714       10.3740371946       29.6287745115
  H        -1.8720688308        8.9033258807       27.3710375112
  H        -2.0500582621        8.7350044635       28.9248126157
  C        -3.2865743836       10.4770886305       27.8625392974
  H        -1.3689781163       11.3050404488       31.1578547906
  C        -1.6433246330       14.0735764798       31.9702945031
  H         4.3653838115       13.5810152200       21.0789149105
  H         5.2375939131       12.1533705419       21.0955853856
  C         6.0364807867       13.6715902072       19.7993669609
  C         3.3752489656        7.4690424813       16.3815333253
  H         2.1298282131       10.9420323713       28.9174371562
  H         1.0706614471       10.9806037772       30.4143223271
  C         2.5211931077        9.4358678928       30.1156579603
  H        -3.0738768705       11.1190885813       27.0355950473
  H        -3.4247059442       11.2161422249       28.7082494305
  C        -4.4750926903        9.5461864907       27.6662007921
  C        -1.6076750693       15.4351491968       32.1988663242
  C        -2.1798518837       13.3083165997       33.0988366753
  H         6.2235565384       14.7053512321       19.8949872839
  H         7.0440097824       13.2125360506       19.6642692982
  C         5.2236921544       13.3852895224       18.5042620316
  H         3.2277553103        6.4234772553       16.4063687262
  C         3.5636375407        7.9515096318       15.0863017768
  H         2.7334280415        8.7055473988       29.3286641645
  H         2.0713761840        8.8226328564       30.8774268682
  C         3.8093529294       10.0268097706       30.5782530191
  H        -4.1201432958        8.8134472953       26.9015392592
  H        -4.8645193996        8.9641740580       28.5600136464
  C        -5.6504623234       10.4390472710       27.2096934927
  N        -1.4001785516       16.4255722778       31.1889051572
  C        -2.0027833927       16.0825563493       33.3595701001
  C        -2.4292716128       13.8676929448       34.4084094071
  H        -2.4180152410       12.3262093413       32.8314601913
  H         4.2881993935       12.9914903842       18.6535722202
  H         5.0049071403       14.1576048353       17.8062408576
  H         5.7653128386       12.5767473153       18.0463653805
  S         3.9183072485        9.5866996648       14.6411151766
  C         3.6296899697        7.0096456698       13.9663251354
  H         4.2452555500       10.7218104071       29.8073472753
  H         3.7073719809       10.5024058390       31.4592209070
  C         4.8850609101        8.8429551816       30.8700381323
  H        -5.2591192323       11.4062961697       26.8049225809
  H        -6.1334051690       10.7416960598       28.1089555135
  C        -6.5822655475        9.6793162210       26.2662368289
  S        -1.5387890737       17.9396211519       31.7878865310
  N        -1.8755888931       17.4869990011       33.3344306480
  C        -2.3720145730       15.3700682946       34.5303764501
  H        -2.5826822848       13.1916416413       35.2818303922
  C         4.1070493085        8.9639267817       12.9640204746
  N         4.0114451007        7.5954456070       12.8187453091
  O         3.5776400988        5.7935243212       14.2285159338
  H         5.7731432870        9.3367584328       31.2136445342
  H         5.1564381708        8.4612566039       29.9308301270
  C         4.3614580536        7.6593371709       31.6816228807
  H        -6.0131358010        9.2860798620       25.4680640432
  H        -7.0644747399        8.7815941952       26.8205889745
  C        -7.6343455091       10.5814053933       25.6252157019
  C        -2.7615790960       16.0860195292       35.6786019268
  S         4.5823105742        9.9055431891       11.5415581980
  C         4.0869846685        6.6979240517       11.6377228024
  H         4.3556365803        7.9929173258       32.7359067684
  H         3.3533969372        7.3379901569       31.3816985660
  C         5.2161461164        6.4194291343       31.6255627368
  H        -7.3485184213       11.0387181133       24.6670235957
  H        -7.8428779149       11.4195137546       26.2643834982
  C        -8.9144752160        9.8271328622       25.4960506207
  H        -2.5166646600       17.1544159648       35.6328920312
  C        -3.3714574479       15.7004783903       36.8591225289
  H         4.9048779411        7.0272823304       10.9583229939
  H         4.4512695846        5.7226535262       11.8706747251
  C         2.7424233080        6.5925207250       10.9075249591
  H         4.5753730065        5.6151910621       31.2878526849
  H         5.6747853483        6.2884254930       32.6151906517
  C         6.3435652450        6.4368987021       30.5750746919
  H        -9.4848714675       10.2016594982       24.6789291981
  H        -8.6859967274        8.7928829164       25.3323080008
  C        -9.7900193362        9.9338543301       26.7958335302
  S        -4.0500478130       14.1912004842       37.2042249666
  C        -3.4574878881       16.6939701064       37.9294135517
  H         2.8111056529        5.8319757168       10.0702923860
  H         1.9946010082        6.2699549992       11.5985227275
  H         2.4834048904        7.4638953227       10.4406875341
  H         6.9471814281        5.5266878164       30.8088892145
  H         7.0707998344        7.2632719533       30.5202920298
  H         5.9190578460        6.3848307540       29.5517181622
  H        -9.1599180890        9.9421723283       27.6312146436
  H       -10.4769487144        9.0758072328       26.7655924897
  H       -10.5295063806       10.7663348782       26.8064880735
  C        -4.5635915179       14.8620004342       38.7568099609
  N        -4.1263008661       16.1383743820       38.9641852088
  O        -2.9065622688       17.8234082331       37.8521397249
  S        -4.9095102541       13.9106498982       40.1769426574
  C        -4.2095870437       16.7503605603       40.3054142832
  H        -4.5032592244       17.7642951843       40.1599905054
  H        -4.9922512418       16.3799656753       40.8995750229
  C        -2.8180643648       16.6677963037       40.9649279220
  H        -2.9496185231       16.6543185296       42.0086281082
  H        -2.4702101632       15.6804130905       40.6473365673
  H        -2.1480715864       17.3986477378       40.6399240568
