352
i=
  H         1.7169235879        1.9234746433       11.8926026174
  C         2.7280571257        2.2993553319       12.1886559142
  H         3.3717460924        1.4722119367       11.9888963802
  C         3.0093810072        3.4374836799       11.2881062970
  C         2.8678596964        2.5291773530       13.6619483942
  C         4.3272481181        3.3402506797       10.5184018170
  H         2.9009369441        4.2799319134       11.9021818254
  H         2.1924650086        3.4625623872       10.6197211970
  H         2.8892004885        1.6141593852       14.3063224729
  H         2.1669719449        3.2845700165       14.0387398465
  H         3.8193848052        3.0570465653       13.7725789049
  C         4.5124244369        2.0724991180        9.6551690168
  H         4.3381487935        4.2241096201        9.8060144424
  H         5.1587844746        3.4776177053       11.1742844262
  C         5.2026523338        2.2222285911        8.2589050218
  H         3.5862392708        1.5726611950        9.2496685864
  H         5.0622013937        1.4120140837       10.3697817950
  C         6.5792727253        2.8615251546        8.3529877117
  H         4.5441306600        2.6423965505        7.5599704555
  H         5.4446574671        1.2541444856        7.7817812060
  C         7.6165781064        2.1210743103        9.1613468100
  H         7.0101488068        3.1439428446        7.3839756982
  H         6.4280892543        3.8522433463        8.8008321492
  C         8.9250161303        2.8963745481        9.3425794615
  H         7.6159197293        1.0742737855        8.8251575154
  H         7.2942448821        1.9639140239       10.1553311450
  C         8.6516412518        4.2836341722        9.9701362574
  C         9.4637805223        3.5178347631        8.0471189296
  C         9.9975985780        2.0594129944       10.0695242587
  C         9.0388498427        5.3566248321        9.1974821711
  C         8.2778566138        4.7072675092       11.1904855327
  C         9.5019542150        4.9198585741        7.9538923030
  C         9.9629108205        2.8946474632        6.8950465320
  H         9.5578719691        2.0923215119       11.0537078979
  H        10.0484477455        1.0103143361        9.8641199854
  C        11.4003061294        2.6982103330       10.1071224970
  S         8.9180907942        6.8638233726       10.0468154431
  C         8.2245597653        6.0294523195       11.3532378229
  H         8.0481344200        3.9250226743       11.9034399658
  C         9.9834555331        5.5303316278        6.8554096474
  H         9.8700517126        1.8153325936        6.8233136476
  C        10.3930556384        3.5485259039        5.7513706299
  H        11.3922214333        3.7679059878       10.1890661051
  H        11.6884819549        2.6792958933        9.0556969417
  C        12.4361868706        2.0383060123       10.9824475407
  C         7.7978428330        6.6720450252       12.6560975094
  C        10.3945709599        4.8711703693        5.6533229945
  H         9.9909832949        6.5954822673        6.8310677192
  C        10.8182796474        3.1477648772        4.4756571009
  H        13.4082322171        2.5919363567       10.8377594035
  H        12.6425238029        1.0645810267       10.5281746094
  C        12.0791967584        2.0076756921       12.4836378663
  C         7.8464410006        8.0951878214       12.9161648372
  C         7.3533748665        5.7848700246       13.7292587899
  C        10.7186372760        5.5955985117        4.3087882869
  C        11.0309927707        4.2288334868        3.6623914039
  S        11.1034471946        1.6397270745        3.7084551749
  H        11.5046374641        2.9289499149       12.7126748865
  H        11.4430775126        1.1510247716       12.6956827450
  C        13.3347802638        1.8402736342       13.3874501375
  N         8.2467293776        9.0364745437       11.9770820051
  C         7.4733785946        8.6326539406       14.1037949008
  C         7.1805446743        6.3581972331       15.0173624630
  H         7.3684456737        4.7359736359       13.6377598229
  C        12.0466671225        6.4007478078        4.4546449024
  C         9.5792987043        6.4190191092        3.6220832735
  C        11.4517378435        3.8114289292        2.3949155393
  C        11.4835054860        2.4592296846        2.2346418943
  H        13.8726304326        2.7996655068       13.3464372176
  H        14.0329590333        1.2848396358       12.7925694863
  C        13.1326585913        1.2676275116       14.7957307423
  S         8.1546337715       10.5501675273       12.6841768544
  N         7.5248817753       10.0027777096       14.0966546428
  C         7.1693978277        7.8636741579       15.2566098912
  H         6.9699426021        5.6690516772       15.8347147962
  H        11.9820242902        6.9661575543        5.3189209458
  H        12.1772369112        7.1492338710        3.6352663706
  C        13.2795033939        5.4753003606        4.5546837371
  H         9.3050618170        7.3402928772        4.1460256800
  H         9.9831733484        6.7091702624        2.6310478423
  C         8.2599201078        5.6461038512        3.5255853347
  H        11.7311914401        4.5941838684        1.6826619682
  C        11.7090637813        1.7961027216        0.9123673003
  H        12.7071325511        0.2788254383       14.6968589172
  H        14.0919441210        1.0902420472       15.1914189014
  C        12.3860226453        2.2369620018       15.6882144166
  C         7.0277998108        8.4784345124       16.5362158062
  H        13.0847396460        4.6953754042        5.3196738447
  H        13.5517506598        5.0573409209        3.6054369304
  C        14.5334299995        6.1942578164        5.0741003004
  H         8.0011330165        5.1743602217        4.4730460803
  H         8.3338118616        4.9123506755        2.7648633060
  C         7.1611610206        6.5720042287        3.0665548752
  C        11.7696893753        0.3543432567        0.7417628968
  C        11.9892551477        2.4669203037       -0.3410517241
  H        11.3613515873        1.9907140404       15.7967485454
  H        12.3279440082        3.2867219891       15.2992024975
  C        13.1039298830        2.3525038212       17.0696363737
  H         7.2219286450        9.5519821551       16.5795227332
  C         6.8679410013        7.9493322626       17.8061165629
  H        14.2831438710        6.8568376481        5.9153242453
  H        14.9393068908        6.8697376936        4.3047904357
  C        15.6052652542        5.2335816419        5.4667528437
  H         6.9342082787        7.1657144014        3.9069790676
  H         7.5329874828        7.3643180667        2.4333853318
  C         5.9305267092        5.8313024989        2.5100422547
  N        11.3521278724       -0.5798783505        1.7012526122
  C        11.9279594630       -0.2654989684       -0.4728693574
  C        12.1749933126        1.8803885685       -1.5646448752
  H        12.0754115321        3.5509032911       -0.3197772878
  H        13.9517962807        3.1413067347       16.9871332227
  H        13.4075706608        1.4046059481       17.4492190763
  H        12.3773021470        2.7260587520       17.7547341311
  S         6.4959003870        6.2607983236       18.2210344810
  C         6.7869229651        8.8966632614       18.9361156587
  H        15.3112911973        4.5080079481        6.1812871517
  H        15.8924775231        4.7544359769        4.4944166950
  C        16.8245062409        5.9959417399        6.0687667096
  H         5.1369183350        5.7882288338        3.2635311391
  H         6.1885017459        4.7477964649        2.2694483913
  C         5.2374925483        6.6772040527        1.4038912483
  S        11.5860481515       -2.0393235852        1.1863318000
  N        11.8415190089       -1.6097477019       -0.3696352548
  C        12.2548197058        0.3852549940       -1.7182791178
  H        12.5062786978        2.4206124710       -2.4448230592
  C         6.1346990911        6.9041305757       19.8243185222
  N         6.2952494690        8.2423284671       19.9873504363
  O         7.0290416690       10.1084552293       18.8255152788
  H        17.3842709092        6.3743052459        5.1856109205
  H        16.5035048474        6.8498460086        6.6501867709
  C        17.6990649312        5.1681648869        6.9418581684
  H         5.7979721856        6.6621609726        0.4691990114
  H         4.3119476804        6.1613962093        1.1691936819
  C         4.8760881918        8.1086326373        1.8563068499
  C        12.3862068176       -0.3143965684       -2.9761003519
  S         5.6109675623        5.9653548871       21.1930274084
  C         6.0811574844        8.9036320549       21.2607805306
  H        17.2665292816        4.9077799603        7.9318140579
  H        17.7773411360        4.1690798369        6.4296582058
  C        19.0950732003        5.7359520183        7.0946082155
  H         5.8175757294        8.6875551781        1.6635476068
  H         4.8146463963        8.1383500868        2.9607121075
  C         3.6016555803        8.6514357435        1.1794948361
  H        12.0222469546       -1.2908211760       -2.9889177838
  C        13.0513449708       -0.0084691626       -4.1443886672
  H         5.2147566950        8.5219803448       21.8304988146
  H         5.9003809923       10.0498877735       21.0934583987
  C         7.4577566189        8.6446135272       21.9075594764
  H        19.5539996658        5.4822410612        8.0328665704
  H        19.0210930327        6.8696377648        7.0388705257
  C        19.9291140704        5.2864233060        5.9592341905
  H         3.5556510096        8.3524367143        0.1914100367
  H         2.6858043957        8.1937785381        1.5696458527
  C         3.4532796722       10.1721306135        1.2896030077
  S        13.6197352949        1.5811699606       -4.6148988820
  C        13.1269442216       -0.9645701643       -5.1343802526
  H         8.0053484528        9.4716681300       22.3503458889
  H         8.1051440047        8.1134827444       21.2163266837
  H         7.2189396059        8.0094311025       22.7618123937
  H        19.9186297047        4.2502802520        5.7523981468
  H        19.5600015578        5.8379577941        5.0945151613
  H        20.9717746652        5.5650741258        6.1082041957
  H         3.3577445935       10.6494060704        0.2902909785
  H         2.5721728553       10.4309711170        1.8472425681
  H         4.4292765933       10.5488239725        1.6012297725
  C        13.9785097376        0.7990168910       -6.2183975291
  N        13.8344959624       -0.5321437530       -6.1690939923
  O        12.7640141334       -2.0977023290       -4.9676877056
  S        14.8831728272        1.5318003414       -7.6045008873
  C        14.0592257367       -1.2966243675       -7.3968136387
  H        14.2668442358       -2.3454187913       -7.1908575189
  H        15.0054121581       -1.0180410426       -7.9397147793
  C        13.0131716051       -1.1568257827       -8.3727725709
  H        12.0497490489       -0.6842623606       -8.0256559756
  H        12.7291626606       -2.0684602460       -8.8190274055
  H        13.2883044901       -0.5696406967       -9.3030412239
  H        -2.8601072244       14.8883638320       16.4904577209
  C        -2.5821238790       13.8598025068       16.4988220210
  H        -3.5766398119       13.4067063187       16.5608836922
  C        -1.8180687382       13.4212783280       17.6938666564
  C        -1.9942999067       13.4964981239       15.1884124097
  C        -2.5519503112       13.6919218744       18.9787146076
  H        -1.5845838439       12.2898828676       17.6395735550
  H        -0.9544556551       14.0775509503       17.7259402466
  H        -1.2298838111       14.2056357799       14.7851888726
  H        -1.6165662884       12.4543443353       15.2507867477
  H        -2.7598265609       13.4802738243       14.4634105741
  C        -1.8452075190       12.8736881483       20.0876173783
  H        -3.6168958403       13.4113106263       18.9029476809
  H        -2.3880150659       14.7950539175       19.0789243865
  C        -1.8922524050       13.5688537063       21.4820251523
  H        -2.2621414818       11.8589892653       20.0971873271
  H        -0.8575134278       12.7417986731       19.7306670047
  C        -1.0001974750       12.8892878265       22.4943159022
  H        -2.8917250496       13.4904876273       21.8907203734
  H        -1.6049431988       14.6078216799       21.3639087008
  C         0.0887597587       13.8975056361       22.8484251829
  H        -1.5912238511       12.6678624098       23.3759994170
  H        -0.5621685074       11.9502617195       22.2156385168
  C         1.3570007064       13.3015515587       23.6165544205
  H         0.4218808492       14.3756447687       21.8977070417
  H        -0.3256584679       14.7331994100       23.4198428134
  C         1.7353075631       11.9323837214       22.9306494266
  C         0.8959029643       12.5388557873       24.8418724265
  C         2.6032206272       14.2331773716       23.7896978965
  C         1.4327073566       10.8009379000       23.6485074214
  C         2.3651876155       11.5433151935       21.6972055416
  C         0.9408567849       11.1764523843       24.8958219286
  C         0.4201386823       13.1113735349       26.0136696783
  H         2.9133451847       14.5512150017       22.8117724885
  H         2.2691947947       15.1315842839       24.3856245039
  C         3.8419769234       13.4833404134       24.4408174993
  S         1.8285407047        9.2903015555       22.8931059105
  C         2.3500104513       10.1951756589       21.5127500161
  H         2.7258852703       12.2666091431       21.0135522301
  C         0.5593417270       10.5307708620       26.0444745713
  H         0.3454205196       14.2301741423       25.9486493005
  C         0.0325582161       12.5146472051       27.1326106727
  H         4.2018431301       12.7190148176       23.7461909306
  H         3.5178750732       12.8757216904       25.3314066385
  C         5.0440783892       14.3803587606       24.5618869562
  C         2.6615680448        9.5680968801       20.2199365993
  C         0.1285758116       11.1815644178       27.2458859276
  H         0.6171100964        9.4931620033       26.1765407494
  C        -0.3550759076       12.9221833236       28.3813280582
  H         5.8131508770       13.9670085491       25.3350878075
  H         4.6162087128       15.2306285829       25.1106245046
  C         5.7498440140       14.7814284366       23.2744998380
  C         2.6765959120        8.1617132803       19.9807547069
  C         3.2238608344       10.3206350873       19.1040060310
  C        -0.1903081966       10.4813907283       28.5231499506
  C        -0.3731963564       11.8537838635       29.2655596962
  S        -0.7405555350       14.4621736004       29.0343776962
  H         6.5867911211       15.4510544625       23.4477420951
  H         5.0981830394       15.3864748317       22.6616459800
  C         6.3631444547       13.5575766777       22.4964110538
  N         2.2489912579        7.1638973143       20.8541446276
  C         2.9588333724        7.6384929223       18.6911484229
  C         3.4603067939        9.8336741890       17.8858843506
  H         3.4341219974       11.3649357840       19.3191042535
  C         0.9383777813        9.6506336977       29.1029356326
  C        -1.5967725979        9.7677986698       28.4084774056
  C        -0.6659605602       12.3674257828       30.5979882717
  C        -0.8766839802       13.7179856076       30.5533814710
  H         7.4060749929       13.6830242725       22.3285689994
  H         6.4204928428       12.6893404478       23.1991512871
  C         5.6936466033       13.2175697996       21.1050100313
  S         2.3857029858        5.7364680788       20.1722094377
  N         2.9311856680        6.2344070545       18.6832707588
  C         3.3472123092        8.3912940314       17.5333634617
  H         3.9534955891       10.4542636956       17.1370474839
  H         1.2012110757        8.9035701905       28.4082260905
  H         0.4637243454        9.1445396778       29.9744424389
  C         2.1990918748       10.3835200198       29.6621446751
  H        -1.4161894897        8.9578574663       27.6347433061
  H        -1.8947726475        9.4432743447       29.4039347209
  C        -2.7212309195       10.5942247135       27.8183111984
  H        -0.7424492451       11.6443162758       31.3934388624
  C        -1.2160986211       14.5112943731       31.7734199493
  H         4.7830343278       13.7930859263       20.9247400677
  H         5.3344104070       12.1859355060       21.0646450680
  C         6.7863191094       13.2964518901       20.0546792322
  C         3.5136203345        7.8312142118       16.1923791822
  H         2.6175696170       11.0005815767       28.8854052154
  H         1.7458879684       11.0046816649       30.4602346937
  C         3.1892926199        9.5084557675       30.3313066194
  H        -2.4247373116       11.3037349318       26.9927287252
  H        -3.1499116585       11.2622363971       28.5872766900
  C        -3.8816088174        9.8197793092       27.2541300056
  C        -1.4736543485       15.9189689612       31.8487277207
  C        -1.4543482281       13.7297192120       33.0486620823
  H         7.4013530135       14.1771970283       20.2846165930
  H         7.3619566834       12.4305085712       20.0409183871
  C         6.1834279674       13.4306820930       18.6084414199
  H         3.5531015560        6.7358652989       16.1767941188
  C         3.8392559782        8.3653102482       14.9611734701
  H         3.2247222818        8.5059455529       30.0038579286
  H         2.8809778876        9.3767275411       31.3865661245
  C         4.6094380369       10.0792534583       30.2878159683
  H        -3.5154003964        8.9650898191       26.6361110433
  H        -4.3042533432        9.3241244878       28.1227861954
  C        -4.9634468748       10.7200892425       26.7248164987
  N        -1.2710458974       16.8229344495       30.7712544799
  C        -1.7018242485       16.5669856709       33.0469887470
  C        -1.7670373248       14.3933910010       34.2167966363
  H        -1.3503812589       12.6864379346       33.2024422965
  H         6.8593494173       13.0625992199       17.7925612380
  H         5.2742712544       12.8520156546       18.4358743263
  H         5.9284895000       14.4612188899       18.3924278441
  S         4.1848330485        9.9970940886       14.5613182355
  C         3.9786449618        7.3072635279       13.8431707096
  H         4.6107336998       11.0585258878       29.8402829890
  H         4.9314532479       10.2812110179       31.3068340537
  C         5.6645604627        9.1430984240       29.7327486594
  H        -4.6008284950       11.5210310158       26.1257713440
  H        -5.3692626064       11.1978899712       27.5885486251
  C        -6.0400597436        9.9575420624       25.9181206773
  S        -1.1698764155       18.3169026824       31.4015759496
  N        -1.6273222721       17.9596320407       32.9192152162
  C        -1.8963557120       15.8781698922       34.2691851683
  H        -1.9481017599       13.8378459260       35.1391442109
  C         4.5019549189        9.2800137775       12.9336881972
  N         4.3735474185        7.9510604842       12.7305444480
  O         3.6874979318        6.0905692672       13.8973433002
  H         6.4351277725        9.6348240313       29.2231836208
  H         5.1418996878        8.5747927794       28.9848230570
  C         6.1246933051        8.2341927998       30.8287446319
  H        -5.7097282984        9.2787792165       25.1247836086
  H        -6.6514133639        9.3580106669       26.5491428278
  C        -6.7807767952       10.9460983871       25.0346358068
  C        -2.3213340057       16.6266830106       35.3973030629
  S         4.7773222008       10.2906954457       11.5414180241
  C         4.3857668472        7.3163277860       11.3980986290
  H         6.5993605029        8.7082374163       31.6872755810
  H         5.2862442917        7.9167048144       31.3599780239
  C         6.8094443097        6.9645331186       30.3049809380
  H        -6.1281559813       11.0095852779       24.2072968328
  H        -6.7687847422       11.9785596391       25.3398326308
  C        -8.2029038749       10.4461643709       24.6987039862
  H        -1.9502908042       17.6082989361       35.2901959031
  C        -2.9176064287       16.3007669672       36.6090006238
  H         5.1286032078        7.7461108363       10.6828888894
  H         4.7280507788        6.2537931667       11.4211919196
  C         2.9642488958        7.2896022895       10.7345875632
  H         7.7198962162        7.2742111751       29.7788745606
  H         6.2065139219        6.3242696001       29.6713501786
  C         7.3164110980        6.1189300193       31.4512619152
  H        -8.5046353316       11.0912219900       23.8812337082
  H        -8.0907236926        9.5183446808       24.2436096530
  C        -9.0791632384       10.3814354508       25.9931962243
  S        -3.3619340706       14.7516434515       37.1630746422
  C        -3.0693252350       17.4165239987       37.6070592149
  H         2.6229623363        8.3004769834       10.4817460606
  H         2.9182849238        6.8335488602        9.7175008826
  H         2.2659486251        6.7496116752       11.4152301093
  H         7.7294610508        6.6860278624       32.2620937520
  H         8.1387383586        5.6095583630       31.1632911797
  H         6.5137024749        5.4680678844       31.8005438221
  H        -8.5396503009       10.3094539641       26.8711217610
  H        -9.8405211747        9.6267733812       25.9881633775
  H        -9.7165992917       11.2634054648       26.1475264494
  C        -3.9506811991       15.5627325565       38.6497365899
  N        -3.6556496121       16.8918862805       38.7136810579
  O        -2.7907590136       18.5354325896       37.3662815805
  S        -4.9723680726       14.8797145740       39.9718743503
  C        -3.7955677746       17.6430487762       39.9340474352
  H        -3.7654708442       18.7025039951       39.7426308386
  H        -4.8099305739       17.3933896564       40.2740020968
  C        -2.7000168790       17.2318429796       40.8844552851
  H        -3.0330442765       16.3603581057       41.4560626947
  H        -1.7155233617       17.1005724364       40.4263054289
  H        -2.3889774582       18.0676669987       41.5161410343
