352
i=
  H         4.2203597477        1.6346254817       12.7638012122
  C         3.7336360600        2.6461070649       12.7262965772
  H         4.5770325804        3.3903293827       12.5843158699
  C         2.8603466632        2.6552060687       11.4644877104
  C         3.0188730467        3.0370824752       14.0338224023
  C         3.7825190101        2.7605144214       10.2467680673
  H         2.3510199456        3.5563652448       11.5668857334
  H         2.0724521528        1.8196696853       11.3914952210
  H         2.6255896534        2.1400635932       14.4598398909
  H         2.2830258743        3.8162822541       13.7637080253
  H         3.7850600151        3.3316242860       14.6793467372
  C         4.6824563278        1.5368792288       10.0860580128
  H         3.1055085829        2.9603516319        9.4424788577
  H         4.3830507559        3.6765169643       10.3216788696
  C         5.3097747865        1.5308345186        8.7554816702
  H         4.0579557152        0.6712666813        9.9952179037
  H         5.3185097923        1.4384362180       10.9208680588
  C         6.5795973269        2.4271926668        8.5987703904
  H         4.5600622736        1.8792367043        8.0318924989
  H         5.5912529583        0.5545265226        8.5024221659
  C         7.8723698729        1.7219239753        9.0554175250
  H         6.7743778476        2.8918328944        7.5645138884
  H         6.3578899510        3.2666937619        9.1990353155
  C         9.0799158108        2.6370661759        9.3204322865
  H         8.1142335472        0.8687440471        8.4340059950
  H         7.6861263357        1.3303948629        9.9694161455
  C         8.6847433886        3.9648538129       10.0181801065
  C         9.4358731242        3.3629355966        8.0965250189
  C        10.2297070567        1.8382303257       10.0055880508
  C         8.8520624151        5.0794869071        9.2331259983
  C         8.3131559140        4.3682989893       11.3175854161
  C         9.3207315974        4.6865933059        7.9709895264
  C         9.8804007126        2.7588728344        6.9244329871
  H         9.7138566096        1.3724216984       10.8444326832
  H        10.4603943216        0.9610443370        9.4370912230
  C        11.3871755313        2.6619181742       10.5052208947
  S         8.7137943874        6.5953059246       10.0080272525
  C         8.2227255114        5.7237900093       11.4973436266
  H         8.1980123366        3.6247693398       12.0626361260
  C         9.7661058615        5.3687113978        6.8453210168
  H         9.9887689675        1.7132408495        6.9698797053
  C        10.2803728671        3.3831539268        5.7599874945
  H        10.9636485230        3.4684298103       11.1118084822
  H        11.9676973456        3.2617836683        9.8200056628
  C        12.4480036466        1.8505963406       11.3051947117
  C         7.7453371505        6.3462844358       12.7896017239
  C        10.2522306137        4.7682691555        5.6425776553
  H         9.7962910018        6.4483438574        6.7875969329
  C        10.6628017358        2.9588255221        4.5226770351
  H        13.3580076582        2.4392703323       11.3710591818
  H        12.7490515963        0.9456185301       10.7581629657
  C        11.8983369016        1.4677286662       12.6688197983
  C         7.7639965994        7.7282640997       13.0209391887
  C         7.5065958228        5.4649465674       14.0198921475
  C        10.6503549023        5.4549338237        4.3921303938
  C        10.9174896528        4.0542620509        3.7311995893
  S        10.8052627547        1.4587637643        3.7757095931
  H        10.8596147878        1.7846950713       12.6541850187
  H        11.8797928394        0.4454655874       12.8355367421
  C        12.7701782066        2.0724746711       13.7909027072
  N         7.7871893045        8.7316750456       12.0375661232
  C         7.5047932315        8.3053709923       14.2778315978
  C         7.2367460769        6.0598604111       15.2284150906
  H         7.4896535890        4.3884481421       13.9983809693
  C        11.8786659455        6.3710613722        4.3395204371
  C         9.4659665381        6.2464247044        3.7599435443
  C        11.4832645723        3.6584056807        2.5150596421
  C        11.4499941186        2.2695726691        2.3636499039
  H        12.5147362008        3.1042761608       13.9912237969
  H        13.8156036463        2.0686584434       13.3614268568
  C        12.7378440703        1.1961277175       15.0037418012
  S         7.6570211118       10.2319871581       12.6742596556
  N         7.5129678380        9.6648887643       14.2713701878
  C         7.2300141901        7.5169508851       15.4555654977
  H         7.1075017743        5.4656331295       16.1407857750
  H        11.6887994772        7.1151954484        5.1057655620
  H        11.9716796831        6.9084979543        3.3660971349
  C        13.0698242143        5.6524105170        4.8225483602
  H         8.9310614073        6.7768394418        4.5764388424
  H         9.8061378345        7.0358523918        3.1060245608
  C         8.3708732302        5.3559111489        3.0263530491
  H        11.7001077200        4.3753687155        1.7220884731
  C        11.7116425997        1.4996402384        1.0542883838
  H        11.7012231661        0.8421755597       15.1299813169
  H        13.2551110773        0.3099105029       14.8253234001
  C        13.3636456632        1.9239268413       16.2285330502
  C         6.9029248143        8.2280565540       16.6860283095
  H        12.8773890959        4.9519729461        5.6669447267
  H        13.5078925460        5.0694733401        4.0453389879
  C        14.2230678498        6.6689450251        5.1373083659
  H         8.1162420854        4.5486409313        3.6877376992
  H         8.9595270659        5.0561897692        2.1497470483
  C         7.2347295723        6.3073919889        2.4391505273
  C        11.8088438845        0.0869752375        0.8823150272
  C        11.7771125334        2.2476331168       -0.2582079142
  H        13.3794498286        2.9612978528       16.0439768524
  H        14.4443551520        1.6671318391       16.2787055731
  C        12.6140849013        1.7808649821       17.5353134055
  H         7.0911351164        9.2338105342       16.6512554982
  C         6.4056383562        7.8259984877       17.8671704410
  H        13.9936498215        7.2745603704        6.0368222582
  H        14.5284151931        7.3693599046        4.3635507661
  C        15.5738538340        6.0397246420        5.4045015752
  H         7.0593836610        7.1755336621        3.0499558453
  H         7.5750333658        6.7196465057        1.5021939047
  C         5.8619399990        5.7189899989        2.1106074624
  N        11.6014731606       -0.8236899016        1.8857615038
  C        12.0775998504       -0.5378207596       -0.2775562165
  C        12.0780766342        1.6348221228       -1.4220914673
  H        11.6297613504        3.3560100489       -0.3060525978
  H        13.2667280736        2.1785845471       18.2969001532
  H        12.4162799263        0.6953916553       17.6976867637
  H        11.6485610867        2.2689442026       17.4335194617
  S         6.0056100171        6.1254031324       18.2550122273
  C         6.2172683454        8.7210107497       19.0393700601
  H        15.6032493491        4.9855728372        5.0508910319
  H        16.2983668166        6.6090713163        4.7429072190
  C        16.2288318918        6.1304873062        6.8304803772
  H         5.2215431189        5.6067581804        3.0182607106
  H         6.0917217020        4.6746493757        1.7138373507
  C         5.2256902673        6.6711979705        1.0991626664
  S        11.8681197383       -2.3005633133        1.3748907062
  N        12.1250851739       -1.9197817885       -0.1999001527
  C        12.3586249308        0.1561240303       -1.4763567199
  H        12.0091637182        2.2125311299       -2.3269173732
  C         5.7250193587        6.6416781453       19.9485169077
  N         5.7926965167        8.0114714842       20.1110458258
  O         6.3244552403        9.9041249555       18.8952128119
  H        16.3199505847        7.0526952930        7.3231816672
  H        15.6265916903        5.5073108494        7.5111001682
  C        17.5207732173        5.2930096856        6.8832188105
  H         5.8783886105        6.9708540763        0.2744293338
  H         4.5101178052        6.0365903723        0.6143209381
  C         4.4106009669        7.8414204984        1.8175333466
  C        12.6806202309       -0.5634386259       -2.7007037404
  S         5.0812481661        5.5927329457       21.2122701951
  C         5.6534982716        8.6249104514       21.4003896528
  H        17.7650901687        5.2054636623        7.9410179091
  H        17.4271035563        4.2468875612        6.5103748766
  C        18.8066048056        5.9875473488        6.2911705808
  H         5.0675172026        8.3745136873        2.5403856770
  H         3.5328151921        7.5182488191        2.4538346085
  C         3.7020947468        8.7662885944        0.8728766192
  H        12.8255857692       -1.6312037332       -2.6651873620
  C        13.2371185957       -0.0420624342       -3.8836856802
  H         4.9805468101        8.2494255013       22.0981078565
  H         5.2830214377        9.6695198385       21.3584095078
  C         6.9214680293        8.7444903278       22.2355042328
  H        18.7200858766        7.0659268797        6.5165463103
  H        18.7532899346        6.0151591411        5.2249568230
  C        20.0710886421        5.5037443734        6.8586619565
  H         3.6547142794        8.3831672150       -0.1612254278
  H         2.6313949041        8.9593915556        1.0115869198
  C         4.4774134034       10.0216381099        0.5258305270
  S        13.6165908357        1.5581920180       -4.3424515200
  C        13.4980989843       -1.0531705943       -4.9675309456
  H         7.5405695662        9.5929995202       22.0322369077
  H         7.5320965724        7.8486434035       22.0203449096
  H         6.6898526470        8.8817370537       23.3125226118
  H        20.8308245076        6.2482263962        6.7533548493
  H        20.0877418981        5.2760604457        7.9317284836
  H        20.5563575953        4.6493827508        6.3334932322
  H         5.0447216439       10.3307347118        1.4204676209
  H         5.1968374583        9.9279718997       -0.2856189571
  H         3.8725185777       10.8603966323        0.3804096822
  C        14.0218639191        0.9472695334       -5.9261880041
  N        14.0018873703       -0.4324239063       -6.0644548309
  O        13.2728136451       -2.2895967624       -4.7714145854
  S        14.6916168332        1.8467973624       -7.3303554527
  C        14.3372716016       -0.9820032979       -7.2824954012
  H        14.5778236959       -2.0360337774       -7.1240214549
  H        15.2631664218       -0.6149506058       -7.7651641566
  C        13.1683059011       -0.9874205231       -8.2115481912
  H        13.1886103020       -0.1927594825       -9.0282065393
  H        12.2806737008       -0.8971816218       -7.6657454776
  H        13.1143073739       -1.9451648527       -8.7734699737
  H        -2.3858882357       15.5841830071       16.3025015867
  C        -3.0864116581       14.7268859552       16.3685184876
  H        -4.0798354192       15.0615851890       16.6969763598
  C        -2.6686577092       13.7536666169       17.4532680145
  C        -3.1772671212       14.0874395433       15.0123627899
  C        -3.0040857851       13.9947041478       18.8663769604
  H        -2.9084300016       12.7539921266       17.2613362828
  H        -1.5913013419       13.5893465186       17.5376601565
  H        -3.6393192192       14.6888745360       14.1901723500
  H        -2.1673531214       14.0774727088       14.5494302779
  H        -3.5922486338       13.1506078466       14.9927367201
  C        -1.9331183486       13.4922460981       19.8000572495
  H        -3.9853258815       13.6649719572       19.1417242113
  H        -3.0207804790       15.0980187152       18.8767429067
  C        -2.4212868099       13.4766807398       21.2482572881
  H        -1.4867682830       12.5408458140       19.5328119113
  H        -1.0606370859       14.1021668961       19.6951993295
  C        -1.4030807907       12.9300461270       22.2576188083
  H        -3.3527259456       12.9918457455       21.2999729133
  H        -2.6962222781       14.5499614654       21.4228694651
  C        -0.2616822153       13.9583835248       22.6122806073
  H        -1.9219212734       12.6802647269       23.0843686750
  H        -1.0777119479       12.0098084569       21.7460908594
  C         1.0418645195       13.2532540408       23.2135052569
  H         0.1239375807       14.2134426225       21.6481932273
  H        -0.5104418428       14.7915350334       23.2646156854
  C         1.3480580340       11.9251756438       22.6023469722
  C         0.6834699373       12.5878307213       24.5534511912
  C         2.3224924230       14.0760014186       23.2666476034
  C         1.1845255549       10.8323755706       23.4288325905
  C         1.7952530045       11.5369639394       21.3173800350
  C         0.7504136892       11.2303139257       24.6535599347
  C         0.2197391642       13.2275161221       25.7479945232
  H         2.6139481163       14.3139402146       22.2486557679
  H         2.0692294705       14.9302665972       23.8086040948
  C         3.5270237232       13.5587498130       24.1229873767
  S         1.5071994390        9.2936100177       22.7052394102
  C         1.8780026690       10.1314398488       21.2083922009
  H         2.0653759529       12.2238950187       20.5202028550
  C         0.2953197134       10.5579112570       25.7828593634
  H         0.1679734848       14.2614812115       25.8984444925
  C        -0.1587888462       12.5850226223       26.9036017684
  H         3.5359318286       12.4743785020       23.9854789680
  H         3.4012787322       13.7955749058       25.1836641959
  C         4.9585649536       14.1646491804       23.8154045707
  C         2.4271636611        9.4002034017       20.0314925852
  C        -0.1847035397       11.2401826091       26.9411466354
  H         0.3219365255        9.4638235240       25.7638828930
  C        -0.5693484325       12.8981496520       28.1525078209
  H         5.6227211047       13.6531223623       24.4224259022
  H         5.1248314120       15.1932144153       24.1400447399
  C         5.3693962137       14.1518067051       22.4146999824
  C         2.4192907462        8.0115978099       19.7856272459
  C         2.9950121985       10.2197013961       18.8804527912
  C        -0.5893073655       10.5093209954       28.2118549838
  C        -0.8525137543       11.8074858617       28.9460296667
  S        -0.9289810693       14.4109592005       28.9224452828
  H         6.3954611011       14.6194558991       22.3488817404
  H         4.7448968394       14.9195644766       21.7792188369
  C         5.4507273563       12.7318484405       21.7458441309
  N         1.8611028443        7.0440305143       20.6316423615
  C         2.8615238184        7.4770564626       18.6174902112
  C         3.4309772627        9.6426891468       17.7308766538
  H         3.1963989602       11.2276594834       19.0848990415
  C         0.5981692994        9.7721460163       28.8318710701
  C        -1.8926712478        9.7352053859       27.9978294067
  C        -1.3145121728       12.2627299822       30.2560974165
  C        -1.3609412771       13.6013983726       30.4029138493
  H         6.2581833144       12.1819544811       22.1859904688
  H         4.5866681624       12.1056996642       22.0519092059
  C         5.5439906886       12.9427567404       20.1847066161
  S         2.0638940529        5.5814500004       19.9127491537
  N         2.7354295653        6.0468604350       18.5802020597
  C         3.2982512122        8.2177144371       17.5506436660
  H         3.9983169105       10.2656607881       16.9813991836
  H         0.9516397065        9.1604221996       28.0034826455
  H         0.1141931843        9.2364509368       29.6846869593
  C         1.7351398331       10.6412653369       29.3653351196
  H        -1.7333338389        8.9564560010       27.2519422352
  H        -2.0326340336        9.1606592207       28.8385416845
  C        -3.0640218988       10.6322196917       27.5562099681
  H        -1.4687543970       11.5128463924       31.0241831483
  C        -1.7820149117       14.3675860283       31.6304457824
  H         4.6998420179       13.6063941216       19.7939364967
  H         5.3965444188       11.9310042160       19.8184036818
  C         6.9629884618       13.2945145726       19.7130234556
  C         3.6717345879        7.5979524603       16.2923954826
  H         2.0363968939       11.2474008834       28.5359421833
  H         1.5097296523       11.2490026060       30.2042901828
  C         2.9909907249        9.7426747573       29.8151850589
  H        -2.8303620544       11.2242250165       26.6623615248
  H        -3.3604953157       11.4144592162       28.2289137752
  C        -4.2642696431        9.7901629205       27.3051949728
  C        -1.8186277391       15.7304373894       31.8066275781
  C        -1.9479718355       13.5497885784       32.9415103033
  H         7.4051167137       14.0880204899       20.3471895859
  H         7.4407827344       12.3151794405       19.7846937213
  C         6.8376654903       13.6307341908       18.1992689536
  H         3.7816139016        6.5052848717       16.2948294989
  C         3.9647855786        8.1217190371       15.0711683567
  H         3.3623880901        9.1193206960       28.9883759820
  H         2.6334717539        8.9724757036       30.4383271257
  C         4.0681479224       10.4546824005       30.6109357023
  H        -3.9659992943        9.0108483289       26.5575876114
  H        -4.5555569133        9.3022763001       28.2164849516
  C        -5.3902896297       10.6734376585       26.7523669236
  N        -1.5000545445       16.6543220220       30.8668477743
  C        -2.0943244779       16.2802000792       33.0539075833
  C        -2.3171137458       14.1229023467       34.1121460857
  H        -1.7026126274       12.5312445414       32.9158560618
  H         7.5331088205       14.4036305119       18.0170875947
  H         7.0913390234       12.8138562274       17.6221095254
  H         5.8802697912       14.0903311089       17.9568404233
  S         4.0126317026        9.8138949772       14.5609893979
  C         4.0831599722        7.2053517620       13.9105128126
  H         4.5267193536       11.3815197833       30.1348327178
  H         3.6568354094       10.9620178648       31.5169180996
  C         5.2095711259        9.5271081995       31.1141355718
  H        -4.9887391456       11.3300339736       26.0218078227
  H        -5.6839648473       11.4923371087       27.4330588948
  C        -6.5742765989        9.9088322683       26.0923342217
  S        -1.4265436059       18.1399886318       31.5371061172
  N        -2.1587739801       17.6658448612       32.9531672477
  C        -2.4721865857       15.6020000797       34.2670401860
  H        -2.4137758253       13.5300643377       35.0172435076
  C         4.3196346208        9.2507863005       12.8860459270
  N         4.3192879084        7.8709603466       12.7894969702
  O         3.8788981023        6.0223657625       13.9847617713
  H         5.5704843356        9.8593179707       32.0931065297
  H         5.9717800956        9.6088490122       30.3784436614
  C         4.8026527387        8.0511241345       31.4136755924
  H        -6.1384628114        9.1471973659       25.4173761684
  H        -7.1395337350        9.3335859921       26.8146660492
  C        -7.5185753590       10.7037954239       25.2819893032
  C        -2.6737328612       16.2495507299       35.4761977458
  S         4.7875399742       10.2113412414       11.4400238531
  C         4.3988556313        7.2206716204       11.4363409575
  H         4.1305770315        8.1141024115       32.2989473132
  H         4.2611826031        7.6132146042       30.6038151749
  C         5.9575570472        7.0089842300       31.6098266838
  H        -7.1344887200       11.0924863153       24.3874912374
  H        -7.7227752314       11.6989607702       25.8301231765
  C        -8.7430023409        9.8187742806       24.9444196680
  H        -2.2692085166       17.2362569779       35.4642826507
  C        -3.2565152205       15.9144338298       36.6600460858
  H         5.0753888092        7.7406961112       10.6706294387
  H         4.9525399374        6.2552351620       11.4942686225
  C         3.0321908214        7.1764240471       10.7819690624
  H         5.4918730548        6.1180478603       32.1350459816
  H         6.7914934989        7.2352902145       32.2890126597
  C         6.6186671956        6.6412256609       30.2897367791
  H        -9.3756323877       10.4346658914       24.3251353079
  H        -8.4879380070        8.9250233593       24.3546457479
  C        -9.7519266294        9.6466374151       26.0346286363
  S        -4.0686548772       14.4531203566       37.1136775930
  C        -3.2491251535       16.9847485710       37.6993173064
  H         2.8046342688        7.6483264400        9.8547508039
  H         2.8041851203        6.1009863554       10.5757308468
  H         2.2392452429        7.4835233438       11.4085552683
  H         7.5343339265        7.1589377498       29.9977638611
  H         5.9078294904        6.9332395808       29.4919514127
  H         6.8297523925        5.5964393660       30.2234521933
  H        -9.3836758637        8.9879313173       26.7793685688
  H       -10.6465409886        9.2222899737       25.5371495785
  H       -10.0453047970       10.5934469094       26.4351437542
  C        -4.0396511049       15.1294748857       38.7111347704
  N        -3.7124130867       16.4483216032       38.8132821236
  O        -2.9284062632       18.2180717028       37.5400123774
  S        -4.6638430183       14.3236312896       40.1346536589
  C        -3.8642785770       17.1410775305       40.0683837373
  H        -4.0903617514       18.1446466143       39.7676220826
  H        -4.7409795694       16.7764187337       40.5860020487
  C        -2.5799874600       17.2980412443       40.9255702221
  H        -1.6262417955       17.4155419566       40.3886058032
  H        -2.7182751382       18.1789853712       41.4937608129
  H        -2.5548735299       16.5732664307       41.6647600866
