352
i=
  H         3.7735260150        3.8983813074       12.6884763191
  C         3.4098845115        2.8934638295       12.6645766195
  H         2.4198347582        2.9656473585       12.2426464612
  C         4.2374295525        2.1034741320       11.6687247963
  C         3.3924611447        2.3542185756       14.0405932361
  C         3.8085757114        2.2109643276       10.2338072194
  H         4.2605401213        1.0436181980       11.9937903204
  H         5.2663798926        2.5416726411       11.7961534507
  H         2.4491089396        1.7787603247       14.1783647550
  H         3.4612590969        3.3044764174       14.6444235014
  H         4.2634906165        1.7385332227       14.3467612960
  C         4.5798701576        1.2396123189        9.2502564537
  H         2.7580437829        2.0315159825       10.2126961805
  H         3.9768890981        3.2040635852        9.8616637504
  C         5.4657348815        1.9987220296        8.2518413144
  H         3.9520655857        0.7714652947        8.4921985493
  H         5.1811128792        0.4685755527        9.8450751063
  C         6.6861814711        2.8265426372        8.8245158342
  H         4.8020964650        2.6475269512        7.6185549567
  H         5.8597605209        1.3610520494        7.4143111871
  C         7.9650763770        2.1632423703        9.3009614682
  H         6.9722149223        3.3395071418        7.9176073564
  H         6.3435206489        3.4415714096        9.7355811992
  C         9.1500932150        3.0883978736        9.4391795637
  H         8.2140276780        1.4058628303        8.4990774368
  H         7.8031136879        1.6924684601       10.2760337891
  C         8.7578955616        4.4797672245       10.0537385333
  C         9.4955398356        3.8416777220        8.2019159619
  C        10.3231467790        2.4144644122       10.2045360007
  C         8.7844931304        5.5652976741        9.1856326956
  C         8.2889316500        4.9045621497       11.2681024742
  C         9.3070961509        5.1536119412        8.0384726580
  C         9.8768678095        3.1462352473        6.9876889854
  H         9.9458778140        1.8209410745       11.0666575712
  H        10.7164042664        1.6775821832        9.6243536973
  C        11.3266030033        3.3751901702       10.9132150446
  S         8.1761905121        7.0092956692        9.8593107250
  C         7.9301421041        6.2176735303       11.3260038304
  H         8.0318981843        4.1810382523       12.0063909630
  C         9.7335755425        5.7658517578        6.9418265961
  H         9.8617278600        2.0070077995        6.9882387345
  C        10.1369120947        3.7511112291        5.7955105491
  H        10.7854975117        4.2129950228       11.3989895735
  H        12.0682002835        3.7965339024       10.2327191917
  C        12.1171214571        2.7000489145       11.9588533818
  C         7.4530782521        6.8987112710       12.5563317933
  C        10.2381814720        5.1319549694        5.7451381532
  H         9.5978369527        6.8203758774        6.9083028754
  C        10.5545425177        3.3370862270        4.5728009200
  H        13.0971463935        3.2506790485       12.1128918541
  H        12.4266851032        1.7736513253       11.5550019831
  C        11.4846731030        2.5783202071       13.3363644500
  C         7.5416518548        8.2897594179       12.7790822915
  C         7.0651975569        6.1340529914       13.7466368144
  C        10.6343098683        5.7641720054        4.4348022671
  C        10.8892341947        4.3994436740        3.7066179882
  S        10.8308049103        1.8260399475        3.8990429182
  H        10.8082748833        3.4676429957       13.4807808204
  H        10.8194141941        1.7312674776       13.1922277843
  C        12.4668815638        2.3752695037       14.4790238830
  N         7.8245366565        9.2978263508       11.7964602663
  C         7.2872163201        8.9054319383       14.0252180064
  C         6.7923807212        6.7492049646       14.9537145260
  H         6.8133974264        5.0348943482       13.7389048943
  C        11.9951360317        6.4654889475        4.5156873093
  C         9.3710538336        6.5891674954        3.8691221978
  C        11.2989232630        3.9104278826        2.4336755519
  C        11.3284705523        2.5651476744        2.4441378620
  H        13.1854062256        3.1532706463       14.4983938923
  H        13.2083788013        1.6149100571       14.2987750766
  C        11.7544387890        2.1266464670       15.8477154752
  S         7.8783561551       10.7276041419       12.5362271193
  N         7.4823720448       10.2820170121       14.0515075411
  C         6.9563500888        8.1882463530       15.1860815428
  H         6.3901778855        6.0679473999       15.7303396052
  H        11.9049400654        7.3263062709        5.1673013698
  H        12.3126210713        6.8021068947        3.5542998410
  C        13.2101221034        5.5717769929        5.0155089319
  H         8.9878028259        7.2102166403        4.6380683115
  H         9.6766774269        7.3470290474        3.0941579771
  C         8.2971061368        5.6795973964        3.1581063901
  H        11.5447087108        4.5425567247        1.5910543641
  C        11.5917002856        1.7986318473        1.2112248420
  H        10.9987272609        2.8520611678       16.0705819811
  H        11.1286045429        1.2685279473       15.7618083262
  C        12.6100388982        2.0691687085       17.1312359511
  C         6.5726046619        8.8760731361       16.3977347275
  H        12.9374107889        4.8824199295        5.8559979073
  H        13.4808202696        4.9604399948        4.1911747636
  C        14.4646499502        6.2958749640        5.4287750617
  H         8.0094142836        4.7906163462        3.7164618367
  H         8.5761488219        5.2789890772        2.1731700039
  C         7.0967711328        6.6221693883        2.8482290625
  C        11.7333409959        0.3471005422        1.1469236792
  C        11.9215317208        2.5631725972       -0.0415262862
  H        13.4037449037        1.3533479519       17.0390250089
  H        11.8578231040        1.7502001256       17.9013701838
  C        13.2781417086        3.4101897119       17.7118633627
  H         6.5060910113        9.9423016086       16.3802158217
  C         6.3944427073        8.4195600542       17.6526292313
  H        14.2259593874        7.2003556422        5.9607243898
  H        15.0849626448        6.5438075167        4.6060712181
  C        15.4401874983        5.4336415220        6.2235477647
  H         6.6137703915        6.9461216787        3.7692230354
  H         7.4083564958        7.5561890800        2.3964826780
  C         5.9722984633        6.1069261567        2.0487901994
  N        11.4359832677       -0.5392105572        2.1647827151
  C        12.0992398514       -0.3003738207        0.0039800860
  C        12.2140567475        1.8426484943       -1.2319046401
  H        12.0164838558        3.6359866659       -0.0474006551
  H        12.4635739282        4.1501959659       17.8481525573
  H        13.9632259899        3.8402095650       16.9707125594
  H        13.7613643172        3.2856973559       18.6760563702
  S         6.2578025044        6.7452747553       18.0866204758
  C         6.1159272486        9.3962513506       18.7155595600
  H        15.0694232044        5.2474626582        7.1479013311
  H        15.7038002115        4.5952110582        5.6882588552
  C        16.7528803881        6.2787028457        6.3569271425
  H         5.6957717771        5.1905613511        2.6178504223
  H         6.3142257720        5.8578490215        1.0835078435
  C         4.8457576392        7.0909319635        1.9352621017
  S        11.4893640879       -2.0674467568        1.5301763548
  N        12.1522162304       -1.7231411716        0.1102871456
  C        12.4220956138        0.3267715832       -1.1809937508
  H        12.4167240952        2.3649654736       -2.1638416710
  C         5.9717180730        7.4067462783       19.7633793440
  N         5.9282758937        8.7128731567       19.8956655809
  O         5.9301976336       10.5985460997       18.5169531417
  H        17.2578751590        6.4640352120        5.4200758038
  H        16.6893046977        7.2212457607        6.9107658169
  C        17.7058430337        5.4546354987        7.2548972094
  H         3.9493158803        6.4930630907        1.8995269656
  H         4.7537771572        7.5645961350        2.9227561633
  C         5.0004451255        8.1474487716        0.7945152125
  C        12.7772411750       -0.5163397004       -2.2998034596
  S         5.9000055673        6.4742914262       21.2032967100
  C         5.8770388687        9.4667420020       21.1576080797
  H        17.1071990389        5.0700159909        8.0821463895
  H        18.0525019775        4.6050631378        6.7050912264
  C        18.9732408531        6.1864785754        7.7162905021
  H         4.9768688686        7.5669332731       -0.1155435116
  H         5.9641157244        8.6944740178        0.8237778824
  C         3.9408202302        9.1851807829        0.6990555499
  H        12.6597648622       -1.6069302392       -2.1171353948
  C        13.3019013307       -0.1883504707       -3.5246545140
  H         5.3880113252        8.9100774221       22.0047605730
  H         5.4027967342       10.3854906890       21.0919062535
  C         7.3143859414        9.8355245758       21.5451436683
  H        19.4231891992        5.7484519927        8.6327804848
  H        18.8638712847        7.2665809462        7.8724544341
  C        20.0293656877        6.1623430356        6.5713213433
  H         3.9285794886        9.5882089755       -0.3108822494
  H         3.0218255835        8.5594531372        0.8764405354
  C         4.1741305808       10.2242014197        1.7799843246
  S        13.9473168911        1.2674321191       -4.0673682253
  C        13.2828949035       -1.2323511277       -4.5862756851
  H         8.0416292294        9.0263423585       21.5486221633
  H         7.3232781463       10.2939275471       22.5345518916
  H         7.7523308873       10.4917956951       20.7851294694
  H        19.5768386141        6.5550919810        5.6171910657
  H        20.9367106305        6.6432093809        6.8284835231
  H        20.2131420737        5.1259236617        6.4226824082
  H         4.9637313895        9.9969600587        2.4743922948
  H         4.4753088421       11.1103033541        1.1968944086
  H         3.2351539612       10.4164926913        2.3804267813
  C        14.2037025734        0.5236751318       -5.6897342276
  N        13.9208105169       -0.7892673838       -5.7188683635
  O        12.9482973876       -2.4320561903       -4.4366272661
  S        14.9955238237        1.2432782021       -7.0479957092
  C        14.1056704783       -1.6087205675       -6.9467517489
  H        14.0590203384       -2.6359716402       -6.5786654032
  H        15.0983614989       -1.4734713455       -7.2300084319
  C        13.0545893691       -1.5138758383       -8.0242470037
  H        13.4936191732       -1.0249942140       -8.9438957498
  H        12.2230646297       -0.8953988589       -7.5917080004
  H        12.5575172164       -2.4234465588       -8.4726503489
  H        -2.9985174999       15.2971596530       16.2818794859
  C        -2.5405448489       14.3312362395       16.2879244459
  H        -3.3318622304       13.6832420426       16.6040996435
  C        -1.4366394286       14.2715781969       17.3345892692
  C        -2.0322440684       13.9892638855       14.8718101011
  C        -1.7590817144       13.4045379873       18.5362306644
  H        -0.5590322549       13.7774147794       16.8562999608
  H        -1.1342937396       15.2640150827       17.6934186319
  H        -1.2208982557       14.5700351387       14.5069392864
  H        -1.7720028772       12.9550962022       14.8799124694
  H        -2.7902289701       14.1405495011       14.1212877391
  C        -2.0228452216       14.2427116590       19.8513433070
  H        -0.8300463358       12.7150853180       18.6794984740
  H        -2.6460424506       12.7217192996       18.4450762012
  C        -2.2800705352       13.5319770161       21.1976580673
  H        -1.1459489156       14.9405698963       19.9607777819
  H        -2.8414561960       14.8991526370       19.6467838889
  C        -1.0218723313       12.7483315613       21.7895221923
  H        -3.1897449686       12.9819275834       21.0361608788
  H        -2.5760485626       14.2800612392       21.9225295831
  C        -0.0073495984       13.7771678524       22.2902284116
  H        -1.3065140392       12.0928720907       22.6128906871
  H        -0.5110602758       12.1561159953       21.0042523143
  C         1.1820054366       13.1468527189       23.0594891831
  H         0.4529112416       14.2382020252       21.4731586916
  H        -0.4205632746       14.5461801763       22.9447263420
  C         1.6120695311       11.7632580428       22.4321669847
  C         0.7404853310       12.4677510979       24.2758972591
  C         2.3403150835       14.0967405706       23.1177941865
  C         1.3405151431       10.6592212714       23.2336201772
  C         2.3138741852       11.3732356536       21.2599590464
  C         0.8260187630       11.1308462265       24.4194143556
  C         0.1534777931       13.0588642394       25.3606106578
  H         2.6120815686       14.4313822966       22.1340193142
  H         2.0855583663       15.0270702741       23.4880883555
  C         3.5916584667       13.4867154838       23.8893806631
  S         1.5108086012        9.1701722390       22.3824137272
  C         2.1587784496       10.0053583332       21.0836541449
  H         2.4553099050       12.1125471267       20.5496453772
  C         0.4381399332       10.5603851721       25.5690559963
  H         0.0393778286       14.1194127085       25.3375438322
  C        -0.1730781931       12.4469667845       26.5291713714
  H         3.9042199840       12.5457544118       23.3465059048
  H         3.1961334847       13.1744898525       24.8570016775
  C         4.8941934613       14.3618765598       24.0971971033
  C         2.3987475571        9.3329580665       19.8276539408
  C        -0.0968655193       11.1611068745       26.6945078657
  H         0.5968043713        9.4551107260       25.5594639893
  C        -0.6132923357       12.8760558072       27.8151422058
  H         5.6688180429       13.7214527117       24.6928145953
  H         4.6506486798       15.2204294087       24.7556551907
  C         5.6804603940       14.8342625903       22.8884727613
  C         2.3818793823        7.9335001826       19.5476215197
  C         2.8559848207       10.1691295408       18.7038213393
  C        -0.5378633912       10.4762276148       28.0070014764
  C        -0.7781200273       11.8032496280       28.6656661928
  S        -0.7754319769       14.3862144505       28.5535155695
  H         6.5722523558       15.4025393354       23.2476845422
  H         5.0335248056       15.4899093208       22.3465922598
  C         6.2171090104       13.7288367328       21.8873901501
  N         2.0587713277        6.9095690559       20.4143366777
  C         2.5962762909        7.4442902017       18.2449685532
  C         3.1732660563        9.6369000485       17.4840696667
  H         3.0595297464       11.2453778265       18.6964863610
  C         0.7058219906        9.6577131157       28.6201156635
  C        -1.7840379859        9.6128466464       27.9988590568
  C        -1.1036432070       12.1444914721       29.9357748478
  C        -1.1992189347       13.5805979946       30.0617076627
  H         7.2397578453       13.4556885251       22.0769230422
  H         5.5892554420       12.8838971451       22.0162074436
  C         5.9689117726       14.0480573401       20.3717174985
  S         2.0872264845        5.5026633804       19.6926818463
  N         2.5875431998        6.0441007932       18.2458957123
  C         2.9718304839        8.2448970293       17.1482622987
  H         3.5313988838       10.2926384353       16.6616247261
  H         1.1681455640        9.0913440193       27.8400699469
  H         0.4257777008        8.9346657094       29.3012610497
  C         1.8140172574       10.4742036883       29.2323991272
  H        -1.5676968494        8.8790726084       27.1763733550
  H        -1.9380498926        9.0328709882       28.8854084586
  C        -3.0686956862       10.4019822164       27.6737392302
  H        -1.2326241308       11.4016209123       30.7119820059
  C        -1.5511595344       14.3099824166       31.3083706575
  H         5.8384114392       15.1006252997       20.2182082947
  H         4.9977366329       13.6594439060       20.0347784394
  C         7.1897288491       13.6104589988       19.5704668322
  C         3.3062659431        7.6640924910       15.8972662830
  H         2.1394587652       11.2603538141       28.4879203992
  H         1.5290836913       11.0341793459       30.1701462219
  C         3.0314825364        9.6467784308       29.6668810844
  H        -2.9895612782       11.1799704208       26.8752501838
  H        -3.2724904939       10.9387153376       28.5190516437
  C        -4.0705228069        9.4032304571       27.2791344760
  C        -1.5791421848       15.7373608557       31.4816583865
  C        -1.9959076963       13.6155486776       32.5107066952
  H         8.0368063939       14.0704339335       20.1081772568
  H         7.2820315562       12.5496988735       19.5613315561
  C         7.1916364249       14.0347968896       18.1374422959
  H         2.8720702247        6.6289056764       15.8606995142
  C         3.7491246191        8.1534965282       14.6735690062
  H         3.3361351799        8.9826970175       28.8737263671
  H         2.8119010533        9.0146326705       30.5182588056
  C         4.2574037212       10.4833792376       30.0758236564
  H        -3.6745617637        8.7891522149       26.4819192334
  H        -4.1997019271        8.7064124021       28.1325795725
  C        -5.4393900009        9.9653234509       26.8616856251
  N        -1.3826099978       16.6455754081       30.4754293319
  C        -1.8827950087       16.3766325655       32.6444138143
  C        -2.2913228842       14.2500777529       33.6990207559
  H        -2.0239776803       12.5562391789       32.4960486409
  H         7.9661602688       13.4636410611       17.6575726967
  H         6.2736242826       13.7527493763       17.5824887686
  H         7.4390477144       15.0972810692       18.0755242051
  S         3.9764745960        9.7523878394       14.1707847396
  C         3.7298760328        7.1164193602       13.5248875173
  H         4.3330670501       11.2518420249       29.2408517110
  H         4.0756162057       11.0312239838       30.9493814030
  C         5.6078144108        9.7139501398       30.2228244097
  H        -5.4621746812       10.9302476815       27.3983025781
  H        -6.3336414282        9.4483833632       27.2732776072
  C        -5.4439099172       10.1522279110       25.3048697525
  S        -1.4533779466       18.1565213870       31.0101030790
  N        -1.8288080066       17.8041598627       32.5648045057
  C        -2.1486369285       15.7431559560       33.8868651312
  H        -2.5006476998       13.7095901303       34.6086683577
  C         4.1580998007        9.0489335459       12.4935890346
  N         3.9952086704        7.7196141041       12.3702752113
  O         3.4062896447        5.9798361922       13.6532679286
  H         6.2687312495       10.3595851472       30.7496861026
  H         6.0335504981        9.4769029120       29.2125373832
  C         5.6329391693        8.4504897089       31.0343498389
  H        -4.4583256032       10.5971754500       24.9472126655
  H        -5.5317144023        9.1799420645       24.9203889185
  C        -6.6317916944       10.9448320310       24.7447405603
  C        -2.5623009165       16.5138290693       35.0436922633
  S         4.3812240816       10.0928787181       11.1158969658
  C         3.9463563246        7.0192876368       11.0709004945
  H         5.9824036522        8.6525343978       32.0628018922
  H         4.6249540605        8.0061120076       31.0549152665
  C         6.4986569525        7.3928115600       30.4085119459
  H        -6.6864145762       10.7894170973       23.6623068617
  H        -6.5005878146       12.0069302065       25.0012834220
  C        -7.9729405095       10.4070491746       25.2782941686
  H        -2.2791371339       17.5682582528       34.9605974751
  C        -3.0560875146       16.1653512200       36.2732553892
  H         4.6042379203        7.5807136217       10.3403333435
  H         4.5312088658        6.0694622861       11.1494048689
  C         2.5006861954        6.8364880309       10.6418007394
  H         7.3859999375        7.8503223723       30.0267953706
  H         6.0676637119        6.9013889964       29.5619545594
  C         6.8466084232        6.1519919989       31.3165910527
  H        -8.6309033306       10.5299090483       24.4207210032
  H        -7.9010895908        9.3476508574       25.4184252446
  C        -8.5986353060       11.0116587167       26.5441382059
  S        -3.7307150856       14.6109929616       36.7522014499
  C        -3.1350383859       17.2327578253       37.3031658592
  H         2.4851282157        6.2633297310        9.7274411789
  H         2.1356890163        6.1355867456       11.3711731231
  H         1.9287510532        7.7250602788       10.4035076116
  H         6.0491830147        5.4319807338       31.2901560125
  H         6.8756210213        6.4154753316       32.3420640983
  H         7.7429846794        5.7218986040       31.0006577930
  H        -8.5230121124       12.0997331894       26.5963860298
  H        -8.1618598979       10.7405665262       27.4478206697
  H        -9.6090155382       10.7826476757       26.7528699166
  C        -4.1084023107       15.4224179375       38.3089199379
  N        -3.6989705869       16.7328105095       38.4282961275
  O        -2.8138688083       18.4266414845       37.2067105392
  S        -4.9105770983       14.6506308485       39.6928980073
  C        -3.7095802792       17.4450771845       39.6855409887
  H        -3.5399532399       18.4797494772       39.4123751960
  H        -4.7374380611       17.3948459300       40.2221796995
  C        -2.6007231837       17.0541038542       40.6377115737
  H        -2.9565075430       16.8299075158       41.6685652285
  H        -1.9961571657       16.2448682498       40.2691533742
  H        -1.8474255545       17.9319755818       40.6553291862
