352
i=
  H         2.6195277036        3.7713755258       12.6494827593
  C         2.6204302841        2.6549892734       12.5543212400
  H         1.7429642028        2.3512799160       13.0932327078
  C         2.3305071366        2.2197511891       11.1872405210
  C         3.8149404668        2.2335155326       13.3374410682
  C         3.5520832797        2.5638877102       10.2843468782
  H         1.4501103394        2.7059074001       10.7755690627
  H         2.2011545393        1.0798219782       11.2666040388
  H         3.5723867876        2.1227056248       14.4311682786
  H         4.6251193918        2.9963443645       13.3178421495
  H         4.2128671660        1.3120307824       12.9123057334
  C         4.3814054143        1.3876713607        9.8650795272
  H         3.1563898584        3.0933889338        9.4043554927
  H         4.1563441043        3.2754188943       10.8650518632
  C         5.2950459567        1.7564283095        8.6950254848
  H         3.7241755742        0.5505094937        9.4926496381
  H         4.9310034272        1.0981108508       10.7778779192
  C         6.4719572118        2.6529563011        9.0347110338
  H         4.6996979945        2.2531567828        7.9306774279
  H         5.6162700758        0.6994575192        8.3682848366
  C         7.7848642467        1.8720957809        9.3167662671
  H         6.6683032229        3.2698520143        8.1512557507
  H         6.2228530097        3.3696337016        9.7352468099
  C         9.0547716651        2.7249212171        9.4891587467
  H         7.8994919475        1.3006869081        8.3961769139
  H         7.6599191180        1.0814617506       10.0052916910
  C         8.6466318369        4.0614680280       10.1477312124
  C         9.5725902257        3.3821069597        8.2561877094
  C        10.1714097665        2.0843889886       10.3644659693
  C         9.0246645620        5.1487468860        9.3686821847
  C         7.9783609362        4.4652948955       11.3093872278
  C         9.5705966618        4.7472273193        8.1923421367
  C        10.0740071723        2.6994452058        7.0999149501
  H         9.5522455824        1.7586428716       11.1745205236
  H        10.5497922823        1.1846878168        9.8228532697
  C        11.3905847928        2.9423582834       10.6442632272
  S         8.7432056148        6.6756503685       10.1211849238
  C         8.0614733792        5.8558879855       11.4927101553
  H         7.7104732562        3.6484203690       11.9098980956
  C        10.0291486175        5.3125472902        7.0614255686
  H        10.2158860631        1.6026379871        7.2764124347
  C        10.4185892435        3.3061448258        5.9281833768
  H        11.0647795306        3.9129817491       10.9096315753
  H        11.9211283582        3.0836065935        9.7176836774
  C        12.4035035807        2.3864209036       11.6592254316
  C         7.5964171875        6.5244455836       12.7300954216
  C        10.4321698548        4.6150820996        5.8547294921
  H         9.9924431694        6.3739849948        7.0120950538
  C        10.7712114362        2.8812992427        4.6871596408
  H        13.3050795566        3.0744002422       11.7017176616
  H        12.7987860601        1.4769985089       11.3339430299
  C        11.8121402003        2.1334635587       13.0554870790
  C         7.7684005009        7.8737357420       13.0722817181
  C         7.0760169774        5.6952319921       13.8683866634
  C        10.7634346229        5.2590442734        4.5679854937
  C        11.0182676429        3.9160238913        3.8639647508
  S        11.0793985815        1.3650822957        3.9849833194
  H        11.2233119185        3.0998700987       13.2247221280
  H        11.0454268062        1.3112886087       13.1649320167
  C        12.8364651882        2.1037641593       14.1677954771
  N         8.3109701641        8.8573488530       12.2260602806
  C         7.4179938832        8.4687418072       14.2737779427
  C         6.6084527669        6.3512131078       14.9884826971
  H         6.7931679010        4.7095800775       13.6840662868
  C        12.0406195604        6.1244079980        4.5377514639
  C         9.6574940714        6.0024562513        3.8452686163
  C        11.4403357992        3.5059820782        2.5397024319
  C        11.5079410829        2.1604522815        2.4431369315
  H        13.4330738776        2.9938326637       14.0392159788
  H        13.5543192737        1.3070567272       14.0859031469
  C        12.3693340490        2.0697614797       15.6849285946
  S         8.5438062397       10.2252720652       12.9682648631
  N         7.7263803455        9.8329227501       14.3247989922
  C         6.9350448415        7.7726600155       15.4039167054
  H         6.1626735541        5.7045113564       15.7012583967
  H        11.8850240185        7.1377469186        4.9836961880
  H        12.3276247345        6.3490617892        3.5320001793
  C        13.1860660131        5.3937253955        5.2512277636
  H         9.4232979336        6.8038696141        4.5519615000
  H         9.9768029184        6.5868270047        2.9949466162
  C         8.4500909215        5.1754598367        3.4860270952
  H        11.6167948264        4.2062361371        1.7525500937
  C        11.8156742710        1.4218467059        1.2162301716
  H        11.6222497352        2.8706917639       15.7143668693
  H        11.8333196871        1.1374210989       15.8397345571
  C        13.4239456941        2.1603711843       16.7190336870
  C         6.6199941194        8.4760101177       16.6340887300
  H        12.9297903003        5.0930609482        6.2383083853
  H        13.4293295916        4.5144938939        4.6328021389
  C        14.5034865025        6.2143357463        5.3454113121
  H         7.9398524904        4.7424451178        4.3327563297
  H         8.7368784570        4.4044936738        2.7359991390
  C         7.3805734904        6.0679094635        2.8984365062
  C        11.8169457996        0.0343352289        0.9821330439
  C        12.1204876213        2.1287510160       -0.0485602363
  H        13.9803779737        3.0389666639       16.2391493354
  H        14.1747429613        1.3337636668       16.7048938325
  C        12.8535187670        2.6401384964       18.0476615262
  H         6.8302489422        9.4832379739       16.4995706886
  C         6.3555377199        8.1005568720       17.9086017584
  H        14.3021130642        7.1185261325        5.9457878535
  H        14.7302154326        6.4960787856        4.3464089419
  C        15.7011547247        5.4059796100        5.8473534882
  H         6.9393700282        6.6298830130        3.6992335845
  H         7.9221156090        6.8630813987        2.2575632109
  C         6.3094238977        5.2174288051        2.2608078029
  N        11.6802230464       -0.8289594239        2.0523153113
  C        11.9450390311       -0.6488118206       -0.2359055160
  C        12.3569735513        1.5178764202       -1.2684300907
  H        12.0554000787        3.1660045827       -0.0502890273
  H        12.1023484687        1.9795728316       18.3986763450
  H        12.3487363281        3.6338121435       17.8185056226
  H        13.5891889912        2.7867713372       18.8446183668
  S         6.1408206456        6.5064848253       18.3995034489
  C         6.2048166385        9.1660658805       18.9102454145
  H        15.4080102399        4.7036076410        6.6659012198
  H        16.0471413084        4.7453609565        5.0055611829
  C        16.9061814948        6.2864181500        6.4698796138
  H         5.7599596502        4.6926609731        3.0368012104
  H         6.7701465471        4.3903509743        1.7779487997
  C         5.3703758188        5.8776622820        1.3123566572
  S        11.4745122233       -2.3191221795        1.4945471038
  N        11.7568439121       -1.9980288206       -0.0656783309
  C        12.2928021679        0.0378107725       -1.4156941961
  H        12.4981989429        2.1871504836       -2.1064467093
  C         5.8220716574        7.1579870668       20.0012778349
  N         5.8917756301        8.5091108842       20.0653894709
  O         6.4946681802       10.3048064808       18.6294574837
  H        17.3617696002        6.9809766613        5.7561896597
  H        16.4894573458        6.9381521427        7.2186001451
  C        17.9778912859        5.3189805076        7.0683792249
  H         5.9305886530        6.3816772506        0.5738924494
  H         4.6943038026        5.1988893502        0.8080211765
  C         4.4640328957        6.9796200946        1.9207813906
  C        12.6614752251       -0.6713677898       -2.5465730099
  S         5.5481670615        6.3765319313       21.5387851896
  C         5.7103635284        9.2972881203       21.2912232773
  H        17.7469276767        4.8356839694        8.0614445302
  H        18.2253291710        4.5669566285        6.3144133215
  C        19.2366457376        6.1117284966        7.1703044302
  H         4.4423577186        6.9555426609        2.9708712651
  H         3.3846404384        6.7252580150        1.7770560450
  C         4.7476296711        8.3622115264        1.3960357564
  H        12.7436576361       -1.6407137670       -2.2802961599
  C        13.0222422018       -0.3200809050       -3.8260430222
  H         4.9266093756        8.8662864566       21.9530808030
  H         5.2793340898       10.2367857387       21.0039619481
  C         7.1253260128        9.4371065908       22.0115981763
  H        19.7315605026        5.8825340724        8.0975827707
  H        19.0933964261        7.1338251038        7.0272687898
  C        20.1310739375        5.6322399417        5.9952692988
  H         5.7068096379        8.6496005876        1.5985403042
  H         4.7708106319        8.3781560106        0.3770787786
  C         3.7578102207        9.3842555166        1.9578788435
  S        13.3613822892        1.2425111721       -4.4202224234
  C        13.0558924926       -1.4490541878       -4.7981926577
  H         7.9658094505        9.4477283588       21.3028037210
  H         7.2607443996        8.5851197315       22.6292925812
  H         7.2629521920       10.3544897880       22.5086421104
  H        19.6499451704        5.5012265966        5.0083406541
  H        20.8789743073        6.4633516575        5.8249948188
  H        20.6284421505        4.7073296240        6.2847880673
  H         3.1751074063        8.9736900596        2.8510226020
  H         4.3422868777       10.0995581224        2.4670065179
  H         3.1081843945        9.9117528445        1.2578411168
  C        13.7504536721        0.4299383011       -5.9710092999
  N        13.5591031333       -0.9519232170       -5.9163889552
  O        12.7381143911       -2.6350248202       -4.5109120037
  S        14.4467290754        1.2202544657       -7.3835346018
  C        13.5799679139       -1.7931379197       -7.1151195248
  H        13.6731648877       -2.8963689238       -6.9171211280
  H        14.4420382912       -1.4942729212       -7.7574401357
  C        12.3732038639       -1.5501534769       -8.0256910318
  H        11.7181658093       -2.3975029029       -8.1092613236
  H        12.7297632859       -1.3234956507       -9.0359532576
  H        11.8445571100       -0.6349535753       -7.7365015290
  H        -1.5572377162       12.6519828308       17.1579065446
  C        -1.7891293765       13.5280468617       16.5781955984
  H        -0.8565745835       13.7775408506       16.1104349904
  C        -2.1812531521       14.6681000660       17.4961250523
  C        -2.8833241548       13.1450789824       15.5368561138
  C        -2.8475026980       14.0569295919       18.7320052440
  H        -1.2044293710       15.0930287477       17.7992201854
  H        -2.8278589500       15.3944887302       17.0134826902
  H        -2.8118797073       12.0603476152       15.3094713546
  H        -3.8384313515       13.1912920443       15.9884796242
  H        -2.8490653888       13.8005345241       14.6446928091
  C        -1.8652821901       13.4256652911       19.7296572273
  H        -3.5011775832       13.1887596848       18.5400996141
  H        -3.4517833476       14.8129887328       19.2565559938
  C        -2.3710337837       13.5582133341       21.2076808482
  H        -1.7854765047       12.3532385934       19.4571363389
  H        -0.8889561228       13.8281194904       19.6552737397
  C        -1.3720489520       12.9652779555       22.1098072716
  H        -3.2504807593       13.0135664332       21.4971482782
  H        -2.6064518542       14.6032053619       21.4590677853
  C        -0.2538718201       13.8580208027       22.5906676149
  H        -1.9249923016       12.5716465458       22.9550412923
  H        -0.9957945329       12.1412538057       21.5248413941
  C         0.9558727685       13.1617444165       23.2195124437
  H         0.0959471268       14.5712774364       21.7919586613
  H        -0.5742694159       14.5957869466       23.3589928890
  C         1.2713847893       11.8935791555       22.4060376255
  C         0.6143687033       12.4340898714       24.4616588862
  C         2.1733819915       14.0798301587       23.3903780603
  C         1.0724360672       10.7688145477       23.2160780892
  C         1.6952564361       11.5230282887       21.1064728644
  C         0.6354743548       11.0870033774       24.5178779858
  C         0.2329556235       13.0423306851       25.6978041059
  H         2.3897045429       14.4698026990       22.3983600339
  H         1.9270670490       14.9253826579       24.0613512236
  C         3.4867863827       13.3089106937       23.7533902717
  S         1.4416374087        9.3030211880       22.3672232235
  C         1.8889162359       10.1545610977       20.9765672246
  H         1.8411674263       12.2087786917       20.3333781498
  C         0.2966732547       10.4637710683       25.7541274524
  H         0.1687797512       14.1251439989       25.7053368379
  C        -0.1035347699       12.4763345619       26.8668166760
  H         3.8059956079       12.8966974842       22.8532082449
  H         3.3610501064       12.5993339204       24.5323705157
  C         4.5644456101       14.2525619920       24.3415149200
  C         2.3255459363        9.4707326625       19.6863884001
  C        -0.1426504273       11.1252938580       26.9323452721
  H         0.4607471744        9.3497399801       25.6816438046
  C        -0.5154446107       12.8753419288       28.1006456621
  H         5.2657082028       13.7498491808       24.9854963045
  H         4.1239370517       14.8619886217       25.0506181081
  C         5.4315877788       15.0751429186       23.3383662570
  C         2.3999023864        8.0993938650       19.4447335287
  C         2.7422658594       10.2656858807       18.5441487421
  C        -0.4737568058       10.4877643173       28.2538151083
  C        -0.7382508232       11.8155484231       28.9669277580
  S        -0.9037281278       14.3863181107       28.7598469192
  H         6.1096548673       15.8433602050       23.8746246243
  H         4.7790092989       15.7729717287       22.7539110618
  C         6.1076517510       14.1482991814       22.2509382626
  N         2.1179539604        7.2142225954       20.4773536833
  C         2.7580737014        7.4772409406       18.3217852304
  C         3.1017843914        9.6328637606       17.3623179755
  H         2.8543253263       11.3688664338       18.6976338059
  C         0.6938332287        9.7695291409       28.8945587908
  C        -1.6425817669        9.5307202672       28.0468248088
  C        -1.1704420819       12.2036326450       30.2077388535
  C        -1.2408593117       13.5814868090       30.2944215410
  H         7.1014359798       14.5687890294       22.1231073378
  H         6.0463201623       13.1216507572       22.5087661550
  C         5.3142139664       14.2240472919       20.8731321655
  S         2.0631195735        5.7147559312       19.8182618893
  N         2.6279203847        6.0818322298       18.3201501702
  C         3.1858083699        8.1992922551       17.1919606343
  H         3.5233250361       10.3067512475       16.6047883556
  H         0.9976363794        8.9384754762       28.1841838378
  H         0.4392038558        9.2864939270       29.8891576645
  C         1.9248712079       10.6394061747       29.1861460861
  H        -1.4437760616        8.9000358421       27.1271499097
  H        -1.9006924475        8.9668376553       28.9070616543
  C        -2.8277321151       10.3392539724       27.5814547499
  H        -1.3170641036       11.4991261691       30.9424434537
  C        -1.5219427981       14.4074721119       31.4849957981
  H         5.5835466976       15.1882993510       20.3634510635
  H         4.2440479150       14.0473774294       20.8365924915
  C         5.8915888177       13.1790285115       19.9342836318
  C         3.3116187426        7.5836391830       15.9186801083
  H         2.2662079818       11.0535922012       28.1976511018
  H         1.6731896552       11.5049227564       29.8364984782
  C         3.1572612001        9.8394241457       29.7901891759
  H        -2.6020212210       11.0283098573       26.7758985281
  H        -3.1939521721       10.9898860859       28.3302655989
  C        -3.9127291074        9.4259110887       27.0217159891
  C        -1.5718715082       15.8191098448       31.6550958255
  C        -1.8758518437       13.6465279280       32.7622681130
  H         6.2445083050       12.3714840095       20.4443487694
  H         5.2409669325       12.6968671706       19.2958037118
  C         6.9744416110       13.8127222229       19.0872199434
  H         3.1688575468        6.4522543630       16.0095525547
  C         3.6092345114        7.9527568532       14.6441699205
  H         3.2922261430        8.8258762734       29.3025267254
  H         3.0498564832        9.5529843113       30.8864782540
  C         4.4031306199       10.6199743895       29.9833828637
  H        -3.4795452152        9.2108761759       25.9768022845
  H        -3.9489129767        8.5065099803       27.5873245663
  C        -5.2163767118       10.2001310404       27.0142087735
  N        -1.2892775453       16.7213567172       30.6308166414
  C        -1.9494054623       16.4098228712       32.8356425491
  C        -2.1329851912       14.2965066461       33.9582180041
  H        -1.8227610199       12.5502805239       32.7977813299
  H         7.3415250476       13.0472134356       18.4130784414
  H         6.5648151909       14.6090071197       18.4951582515
  H         7.7948078444       14.2304157186       19.6416689499
  S         4.0572957940        9.5842643022       14.1958079815
  C         3.6942994252        6.9347096462       13.5854915249
  H         4.4772966837       11.2112662097       29.0239500473
  H         4.1608603915       11.3576692362       30.8032921672
  C         5.7193576660        9.8012771479       29.9835244876
  H        -5.0552697781       11.2219635729       26.7423783578
  H        -5.5891406098       10.2783272607       28.0103580184
  C        -6.3507228389        9.6428644789       26.2198344037
  S        -1.6078465822       18.1979621519       31.1854526842
  N        -1.7894920651       17.8102939105       32.7634247102
  C        -2.2801515805       15.7792490297       34.0330271981
  H        -2.0967882432       13.7223565934       34.8584711371
  C         4.3960640818        8.8548267862       12.6077703741
  N         4.1817500691        7.5303019541       12.4861461305
  O         3.6353900739        5.7431093025       13.8231119641
  H         6.4810061800       10.5558162984       29.9918893618
  H         5.9117505754        9.3402287163       28.9624916387
  C         5.8229116087        8.6756971196       31.0550794459
  H        -5.8985139804        9.1538963842       25.4236254035
  H        -7.0012279141        9.0328373385       26.8713765491
  C        -7.2116316716       10.7655839524       25.5284737242
  C        -2.3997094964       16.5077999676       35.2713237178
  S         4.8911048602        9.7119098019       11.1498978676
  C         4.4140149422        6.6529436085       11.3596753807
  H         6.2116699600        9.1538708800       31.9911730029
  H         4.9165404118        8.0700163190       31.1565482216
  C         6.9330246771        7.6871960037       30.6848608694
  H        -6.6958631612       11.0447204035       24.5854936245
  H        -7.2918607048       11.7210164752       25.9958334824
  C        -8.5813707463       10.3027017050       25.1226787540
  H        -2.4717394350       17.6293316144       35.0991961681
  C        -2.6617473053       16.0723768970       36.5298333763
  H         4.9958533894        7.0008584237       10.5692311603
  H         4.9052680805        5.6891627212       11.7376270375
  C         3.1035515739        6.1954342420       10.8155613743
  H         7.1430023243        7.1513445339       31.6207862591
  H         7.8167521215        8.2235881448       30.4826725176
  C         6.5801175546        6.6406525961       29.7079577694
  H        -8.9866631143       10.8770686643       24.2738727362
  H        -8.4131771950        9.3065486033       24.7732539851
  C        -9.4934339721       10.4929886569       26.3002020487
  S        -3.0586368906       14.5522469245       37.1218072795
  C        -3.0053000598       17.1534829375       37.4660408314
  H         2.5492696741        6.8118448623       10.1410316943
  H         3.4093500675        5.3738722333       10.1204365653
  H         2.4377500790        5.6705095030       11.5070016273
  H         5.9618805593        7.1301781634       28.9634509383
  H         5.9775106217        5.8230404255       30.0764791766
  H         7.4908587905        6.2944936273       29.1670423551
  H        -9.8899719720       11.4811724821       26.3493096121
  H        -8.9431590187       10.2545685014       27.2576234064
  H       -10.3208395692        9.8522426298       26.3067267404
  C        -3.4836363612       15.2966285697       38.5986045917
  N        -3.5448809234       16.6170192768       38.5489388202
  O        -3.0188901814       18.3261294459       37.2101776215
  S        -4.2082167473       14.4836505581       39.8928961718
  C        -3.8720781786       17.4892732928       39.6763523523
  H        -4.1852746525       18.5118335458       39.4271974332
  H        -4.7665048582       17.1869762884       40.2043472532
  C        -2.7950766592       17.6423190336       40.6806607859
  H        -3.0241129013       17.1552973285       41.5910992279
  H        -1.9201238626       17.3182754694       40.2816646893
  H        -2.5963825734       18.7198615051       40.9221768632
