352
i=
  H         3.4566720446        1.9076163152       13.3533262341
  C         4.0577948064        1.9077676628       12.4445643961
  H         4.0455824056        0.8482735545       12.2867318396
  C         3.4041627966        2.8161620490       11.3332754825
  C         5.4352760898        2.3428922878       12.8561973448
  C         4.1703087981        2.8248199159       10.0097198196
  H         3.2736808199        3.8449231457       11.5606090678
  H         2.3829056157        2.4886153495       11.1980269110
  H         5.4567224711        3.0631452708       13.7328932347
  H         6.1240898110        2.8112909998       12.0632773202
  H         5.8353347645        1.3507184387       13.1095018485
  C         4.7454339385        1.5040145300        9.5780055262
  H         3.4527970081        3.0597176830        9.2731085523
  H         4.8799520637        3.6496619248       10.0836588625
  C         5.3292725510        1.7523396015        8.2330124448
  H         3.8777029634        0.8826201525        9.5677516559
  H         5.4509183664        1.0754021820       10.2508093224
  C         6.6875521618        2.5848279972        8.1924849567
  H         4.6837957828        2.1939544665        7.4896247026
  H         5.4507977121        0.7956442703        7.6692132855
  C         7.8414037724        1.9370158202        8.9763594613
  H         6.8887931097        2.7681803315        7.1761070710
  H         6.4473859849        3.5774238054        8.5578580852
  C         9.1288439302        2.8305516632        9.0510469460
  H         8.1566693508        1.0363519220        8.5425733880
  H         7.4469769417        1.7510765908       10.0117343703
  C         8.8086804834        4.1501248411        9.7724291242
  C         9.6391755265        3.5493109164        7.8491902146
  C        10.3595279110        2.1435516121        9.7483246491
  C         9.0404242083        5.2916921857        8.9596131888
  C         8.4008672730        4.4966460336       11.0537528401
  C         9.6011030098        4.8948765437        7.7029406824
  C        10.2523389832        2.9111387956        6.7844740091
  H        10.0920562096        2.0619855320       10.7901716426
  H        10.6415371798        1.1177398921        9.4809599354
  C        11.6254403429        2.9258700493        9.8566967004
  S         8.5553162125        6.7340915722        9.6836426032
  C         8.2873209111        5.8209389410       11.1849853654
  H         8.4253184435        3.7799073642       11.8511324788
  C        10.0271423325        5.5096052763        6.5900332004
  H        10.2745510767        1.8005514007        6.7965265356
  C        10.6919318223        3.4785412222        5.6482547955
  H        11.4012413447        3.9756317842        9.9771715132
  H        12.2015133659        2.8960866214        8.9589789275
  C        12.5403180074        2.3861113411       10.9999918376
  C         7.8927239137        6.6125126242       12.4591928928
  C        10.6205020851        4.8319547882        5.5088523369
  H        10.1183796321        6.5787506470        6.6473719512
  C        11.1233421377        3.0365501998        4.4101673233
  H        13.3682302361        3.0773587492       11.0348104046
  H        12.8070248753        1.3233814171       10.7898267481
  C        11.8906711615        2.3787867035       12.3845112480
  C         7.9737231958        7.9938097527       12.6042643772
  C         7.6546181588        5.7539188378       13.6577655813
  C        11.0929215485        5.5473904105        4.2256275930
  C        11.3384021607        4.1405270151        3.6015938449
  S        11.3933166107        1.5814939358        3.6138017048
  H        11.2405577931        3.2610501268       12.5527108162
  H        11.1171366157        1.6127208262       12.4960765156
  C        12.9728948298        2.0686257651       13.4674313879
  N         8.3870356582        8.8926192292       11.6095262700
  C         7.8749227498        8.5607260765       13.8820499738
  C         7.3374057249        6.3775250772       14.8569276283
  H         7.3635663111        4.7252540184       13.5198969410
  C        12.3503133970        6.3840312164        4.5170058022
  C        10.0469707141        6.3440434772        3.3730115671
  C        11.7780626840        3.7434445520        2.2793346996
  C        11.7445996718        2.3817685428        2.1294757299
  H        13.8333808649        2.6234704676       13.2990172079
  H        13.3077779318        1.0406130454       13.3863048345
  C        12.3169412724        2.1968170924       14.8461006248
  S         8.5317894265       10.3245893098       12.3918235283
  N         8.1829654223        9.9161611560       13.8636700153
  C         7.4757766716        7.8683295430       15.0322489712
  H         7.1483717217        5.7394407293       15.6986377654
  H        12.2495220131        7.0390655100        5.4216358285
  H        12.5456562408        7.0827891654        3.6828068585
  C        13.5581131560        5.4632172716        4.7596460455
  H         9.8078735462        7.0911936703        4.0797470032
  H        10.3684186106        6.7250916596        2.4411753346
  C         8.7841245188        5.4574261625        3.0943493781
  H        11.9095923832        4.4883216705        1.5116946249
  C        11.9764845671        1.5848308125        0.8922692913
  H        12.5136877292        3.1925799522       15.1973691635
  H        11.2283727378        2.0621553412       14.7914927697
  C        12.9642479087        1.2905466087       15.8675966163
  C         7.3230656517        8.5759311636       16.2944080314
  H        13.4187640086        4.6059903508        5.4283044623
  H        13.8554735094        4.9415883065        3.8959137225
  C        14.7289775850        6.3142690031        5.2718910834
  H         8.4806345393        5.1407532818        4.1260189798
  H         9.0217798921        4.4854337319        2.6466560998
  C         7.6644107643        6.2062937474        2.4127897898
  C        12.0013020441        0.1258477842        0.8297869398
  C        12.2963301038        2.2918883070       -0.3298246153
  H        14.0162880574        1.1401334031       15.6108745224
  H        12.4834489578        0.3484246253       15.9628978820
  C        13.0763398201        1.8459037528       17.3719854668
  H         7.5504888501        9.6955290879       16.2822851504
  C         7.0124771570        8.1950386758       17.5206304896
  H        14.2512738099        7.2044534121        5.7937921030
  H        15.2947627350        6.7617920094        4.4778924486
  C        15.6452450380        5.4738745676        6.1963418780
  H         7.5954488352        7.1726758163        2.8395507135
  H         7.9428947514        6.3900899046        1.4275304437
  C         6.2429255512        5.5777618507        2.4813309111
  N        11.5923785639       -0.7089428834        1.8297855716
  C        12.2770044557       -0.5918910945       -0.3503720459
  C        12.4230659635        1.5317833859       -1.5082319478
  H        12.5081097452        3.2747129011       -0.3057275164
  H        13.4747651822        2.8991456932       17.4140617316
  H        13.7980920047        1.2538512435       17.9509541870
  H        12.0111172583        1.8244215905       17.7139700361
  S         6.5125968650        6.6620402770       17.9683298138
  C         6.9766954978        9.1956045484       18.6356310825
  H        15.0299275520        4.9313660376        6.9129478432
  H        16.0294399351        4.6547325575        5.6054602049
  C        16.6660355729        6.2456522388        6.9164087248
  H         5.8762441449        5.5318337477        3.5160050558
  H         6.2622896103        4.5582339447        2.0791839912
  C         5.0889876080        6.2298072004        1.6812520204
  S        11.8412879571       -2.2478048290        1.3497749614
  N        12.2501846501       -1.9500905644       -0.2030392717
  C        12.5565494876        0.0604684718       -1.5332538921
  H        12.4852916350        2.0461069642       -2.4793596148
  C         6.3916184494        7.2994906470       19.6413083018
  N         6.5161034880        8.6286419491       19.7441594914
  O         7.0935367794       10.3830192890       18.4537886798
  H        17.1501243266        6.8828710278        6.2121187648
  H        16.1366930369        6.8657955446        7.6363704718
  C        17.7042382920        5.2833246254        7.5242109957
  H         5.3330740261        6.1294073685        0.6344317242
  H         4.2022330024        5.6088534096        1.7329533338
  C         4.5316847270        7.5842034725        2.0922693787
  C        12.6967895458       -0.7650567510       -2.7320918982
  S         5.9217144893        6.4489741391       21.1072930369
  C         6.5103992839        9.4461260229       20.9511243363
  H        17.4459258368        5.0328982115        8.5538924903
  H        17.7006785327        4.3282653083        6.9280885067
  C        18.9763606510        6.0461395309        7.4090535438
  H         4.9607928891        7.8577182214        3.0673301439
  H         3.4761646105        7.6216330541        2.0136976963
  C         5.1613321629        8.6229622666        1.1256264109
  H        12.2928377043       -1.7775475092       -2.7681607873
  C        13.1809963618       -0.3780769379       -3.9743827003
  H         5.7764900661        8.9961386597       21.7450401591
  H         6.1448758092       10.4547882674       20.8093145253
  C         7.9248005147        9.4322656259       21.6245299822
  H        19.7636472401        5.6651861168        8.0766509704
  H        18.7985089957        7.1188030858        7.5866204939
  C        19.6585363517        5.9538769145        6.0235934139
  H         6.2399330779        8.5670041002        1.0791860252
  H         4.8632347535        8.3891928775        0.0923467287
  C         4.9197893514       10.0792012412        1.5174630698
  S        13.6173183071        1.2295063813       -4.5867549481
  C        13.1209405443       -1.4256486288       -5.0428582120
  H         7.9995624105        8.5159927123       22.2856864966
  H         8.0787197377       10.3426563139       22.2226959339
  H         8.7310314830        9.4250068621       20.8452522561
  H        18.9201461423        5.8175050809        5.2670629447
  H        20.2189960432        6.8910736729        5.7410526322
  H        20.3227509047        5.1483972101        6.0518574863
  H         3.7642140292       10.2838755316        1.5316701782
  H         4.9770460336       10.2112601386        2.6098508361
  H         5.5232800945       10.7221875950        0.8705139068
  C        13.8141175765        0.4250050962       -6.1486626978
  N        13.7008697380       -0.8915273665       -6.1773107757
  O        12.9224285165       -2.6637003817       -4.8734550393
  S        14.4080423639        1.2205672284       -7.6025132098
  C        13.7539380892       -1.6031991771       -7.3989233738
  H        14.0846941794       -2.6196170393       -7.2482136675
  H        14.5404978214       -1.2246309253       -8.1356442904
  C        12.3159645597       -1.5679247907       -7.9610100976
  H        12.3254928417       -1.3283015874       -9.0235024312
  H        11.7237339190       -0.7834465043       -7.5216084837
  H        11.9253057829       -2.5756120575       -7.6736332091
  H        -1.1605650379       14.2125389763       15.3060237371
  C        -1.9645428631       14.1873111036       16.1367578359
  H        -2.5065437797       15.1573252405       16.0254208093
  C        -1.3739879010       14.2003603683       17.4683265636
  C        -2.8281225858       12.9795734627       15.8237833842
  C        -1.5382715403       12.9127203556       18.3271272815
  H        -0.3438410509       14.6001631717       17.4833122149
  H        -1.8477658482       15.0092240312       18.0443670803
  H        -3.4693548631       12.7666556152       16.6523802338
  H        -3.4855341252       13.0700704639       14.8993504187
  H        -2.2856385711       12.0838443112       15.6193134905
  C        -0.7962767858       13.0364887117       19.6442851289
  H        -1.1305803560       12.0622724688       17.7529995218
  H        -2.5419941527       12.6788050828       18.6269274386
  C        -1.7188834353       13.0095406790       20.8940293946
  H         0.0799329045       12.3246849728       19.8600366233
  H        -0.3526588663       14.0229881735       19.6442990453
  C        -0.9281419707       12.5780773437       22.1302410397
  H        -2.4482108227       12.2579674469       20.6867836825
  H        -2.2568389748       13.9932133490       20.9457333892
  C         0.1182991668       13.5346768198       22.6454219057
  H        -1.6543055087       12.4542890734       22.9611079998
  H        -0.5236602699       11.5527849338       21.9706767934
  C         1.3857413597       13.0092915726       23.4419324051
  H         0.5070129127       14.1405518814       21.8744254149
  H        -0.5638077881       14.3070749027       23.1420485068
  C         1.8728874520       11.6878132751       22.7928342537
  C         1.0322888121       12.2651224214       24.7171388156
  C         2.5184279471       14.1608602687       23.6927509735
  C         1.6547150286       10.6010461700       23.5961349359
  C         2.4767964840       11.4368546186       21.5568815636
  C         1.2066619775       10.9517219396       24.8795798194
  C         0.6732951189       12.7645370427       25.9281957600
  H         2.6720079826       14.7978381174       22.7685707205
  H         2.1115410120       14.8424568390       24.4378169451
  C         3.8335632215       13.5511800487       24.0701337792
  S         2.2230564051        9.1832388720       22.8687262407
  C         2.6115491921       10.0783744392       21.4550083608
  H         2.6436112323       12.2099960481       20.8342126484
  C         0.9315648721       10.2036096348       25.9872304023
  H         0.5020959752       13.8399195327       26.0759620872
  C         0.2832154015       12.0815184983       26.9908283227
  H         4.1573659533       12.8198604668       23.3845717621
  H         3.6213857639       13.0595382046       25.0352946715
  C         4.9836206361       14.6017672175       24.3565008328
  C         3.0357430081        9.3615462479       20.1641655209
  C         0.5057296534       10.7478774476       27.1556213353
  H         1.0482954333        9.0969937448       25.9145985733
  C        -0.1155018792       12.4331527719       28.2149574570
  H         5.6954413281       14.1234535651       24.9901087980
  H         4.5641537068       15.3883709799       24.9797390345
  C         5.5447206511       15.1726492230       23.0897156909
  C         2.9751945052        7.9614160269       19.9508612835
  C         3.4621710097       10.2001102879       18.9849377524
  C         0.1325576395       10.0181635639       28.4844160160
  C        -0.2392082412       11.3525365066       29.0692279804
  S        -0.5619803031       14.0065708743       28.8832615822
  H         5.9212579915       16.1463321762       23.1739391689
  H         4.7982396661       15.2663810519       22.3731778317
  C         6.6870049627       14.3494211082       22.4138090877
  N         2.7383748422        6.9437092095       20.9246254821
  C         3.1828087774        7.3625249992       18.7414794759
  C         3.6690124236        9.5654258741       17.7849511013
  H         3.5263220746       11.2976264287       18.9962762949
  C         1.2436243701        9.2257441512       29.1263974524
  C        -1.0378183699        9.0424653586       28.2806449849
  C        -0.7177322626       11.7454378166       30.3274639066
  C        -0.9944407570       13.1086712871       30.3656576505
  H         7.6732873831       14.8464935882       22.4159978188
  H         6.7879815815       13.5707191350       23.2211161612
  C         6.2570594692       13.6221445665       21.1246232326
  S         2.6579415162        5.4912019282       20.1778297127
  N         2.9899744680        5.9922361682       18.7105401534
  C         3.5935812792        8.0768137250       17.6137973645
  H         4.0099182337       10.1215043436       16.9287135787
  H         1.6096681932        8.3080095128       28.5985690445
  H         0.7927838999        8.7626961219       30.0030812101
  C         2.4764374937       10.0860448571       29.5519285702
  H        -0.7666426143        8.4151703613       27.4897545248
  H        -1.1684611862        8.4344976247       29.2363438965
  C        -2.3004688470        9.7814898950       27.9115814895
  H        -0.9502358399       11.0261203780       31.1180141756
  C        -1.3500268873       13.8294224323       31.6664163508
  H         5.3320480695       14.0945943639       20.7887099707
  H         6.0188373589       12.5888872969       21.2864334661
  C         7.4107873491       13.7985243779       20.0783952041
  C         3.7470829611        7.4677346546       16.3130200337
  H         2.9625673339       10.6080512161       28.7155602997
  H         2.1171470562       10.8410581112       30.2076254598
  C         3.6264707870        9.3850554779       30.2746235330
  H        -2.1467576608       10.4395839771       27.0477287887
  H        -2.6295893593       10.2981881573       28.7531279866
  C        -3.2820853738        8.6020049315       27.5404408081
  C        -1.3277341976       15.1882348356       31.9173417306
  C        -1.5926668449       12.9893267859       32.8548438934
  H         7.7892614666       14.8379050935       20.0321291835
  H         8.2125745911       13.0951349059       20.2277676597
  C         6.8683862846       13.6411056440       18.7753703240
  H         3.8100278058        6.3774103820       16.3996818802
  C         4.0275241315        7.9119699216       15.0441925624
  H         3.4236957363        8.3488968343       30.0285932694
  H         3.4554425226        9.4801110494       31.3577533611
  C         5.0018970221        9.8332347480       29.9609092996
  H        -3.0686752055        8.0409198832       26.6170750963
  H        -3.1782836163        7.9026520718       28.3461288253
  C        -4.7160330092        9.0226415701       27.2611560223
  N        -1.1783680856       16.1687033432       30.9582998732
  C        -1.7046623965       15.7536887580       33.1302452991
  C        -1.6659547172       13.4980438562       34.1291495274
  H        -1.6110208249       11.8768795360       32.7880250663
  H         6.1158906207       14.4461183598       18.6811187586
  H         7.5227296401       13.6722066675       17.9692648429
  H         6.4045243669       12.6732757607       18.7275683504
  S         4.3608975998        9.5133134903       14.4398805770
  C         4.2261341151        6.8326718430       14.0350265708
  H         4.9062572806       10.4588614054       29.0897330238
  H         5.4862361296       10.3835651626       30.7828344039
  C         5.9524788446        8.6931148154       29.5093930970
  H        -4.7946081903        9.7909087823       28.0263032406
  H        -5.3985425879        8.2248908141       27.4650761152
  C        -4.8292920298        9.6245411176       25.8944360949
  S        -1.2926222329       17.6570403289       31.5887600249
  N        -1.6149391689       17.1709606427       33.0774568886
  C        -1.8702937088       14.9820950454       34.2694201174
  H        -1.7052326503       12.8499540051       35.0399421702
  C         4.3827035957        8.7618077095       12.8264602409
  N         4.4068647356        7.3844408151       12.8483586636
  O         4.0629566358        5.6281130282       14.2861097482
  H         6.8862634587        9.1844025367       29.2468237625
  H         5.5813781523        8.1552794728       28.6334010482
  C         6.1997013899        7.7520882943       30.7438784846
  H        -4.1067642382       10.3727770436       25.6434084523
  H        -4.5502707597        8.8548658825       25.1713117603
  C        -6.1489518926       10.2734239775       25.6425484399
  C        -2.2726870700       15.5895177426       35.5386939558
  S         4.8372690720        9.5485343673       11.2674899943
  C         4.4197066894        6.5749467526       11.6558808483
  H         6.5497837098        8.3312569272       31.5979239749
  H         5.2656948593        7.2965357380       31.1037910076
  C         7.1154539494        6.5859955382       30.2913818552
  H        -6.1635158706       10.7222805163       24.6807101758
  H        -6.5162694570       10.9443227133       26.3891770003
  C        -7.3975851353        9.3592113777       25.4100575549
  H        -2.1753738580       16.6197166167       35.5458168634
  C        -2.8852096409       15.1637713320       36.6854304061
  H         5.1118635824        7.0607282320       10.9895106928
  H         4.6684631137        5.5725661311       11.9048563373
  C         3.0449921714        6.5310821416       11.0868354180
  H         8.0089442209        7.0360004986       29.9227368054
  H         6.6014272599        6.1902258988       29.4136106299
  C         7.3637655695        5.6625128451       31.4507123329
  H        -7.2037893204        8.6458974393       24.6641419443
  H        -7.6158571666        8.7326665515       26.2557934596
  C        -8.6457099607       10.1324157716       24.9948446401
  S        -3.5930284797       13.6323442185       36.9395034886
  C        -2.9127849725       16.0909507102       37.8463102952
  H         3.0578988815        5.9817733670       10.1493042551
  H         2.3978368997        6.0501353778       11.7675814701
  H         2.7453292233        7.5696835087       10.8971911533
  H         6.5719012255        4.9175238086       31.4499741205
  H         7.4715636184        6.1550146449       32.4072031731
  H         8.2558267402        5.0797022182       31.2068936343
  H        -8.6171406926       11.0613880518       25.5606595014
  H        -9.6071125632        9.5596911547       25.1617329459
  H        -8.6935252596       10.3926230537       23.8985670358
  C        -4.0350382608       14.2576929473       38.5665244475
  N        -3.6887126617       15.5187263307       38.8316500327
  O        -2.4249567850       17.2193672930       37.8708855628
  S        -5.0346685475       13.3855497583       39.7610614843
  C        -3.8966048621       16.2467447362       40.0794998857
  H        -4.1489189517       17.2494420858       39.6919451050
  H        -4.7891550666       15.7711466582       40.5844679327
  C        -2.6328033773       16.1224208662       40.9974132806
  H        -1.8935580544       16.9366662283       40.9293150467
  H        -3.0423544481       16.1750696066       42.0152442056
  H        -2.1560336344       15.1746957406       40.8465805354
