352
i=
  H         2.2974582093        1.4748607270       12.6973850452
  C         3.2567701063        1.9479681883       12.4313200892
  H         3.8869942613        1.1844156311       12.0879310839
  C         3.1754361168        2.8458746616       11.2124337175
  C         3.7554754970        2.6445760157       13.7012414352
  C         4.4087833066        3.0226074223       10.3010043383
  H         2.7019932415        3.7462912089       11.5237265059
  H         2.4157551638        2.4630623131       10.6277651514
  H         4.6239770494        3.3542210926       13.5506715197
  H         4.0845107130        1.8694563947       14.5101347575
  H         2.9805559658        3.2610936280       14.1409910127
  C         4.7683723873        1.7896647297        9.4823452954
  H         3.9694791956        3.7874519680        9.6646813087
  H         5.3419595609        3.4498083617       10.7593052549
  C         5.4319903676        1.9944298885        8.0862821457
  H         3.8702367504        1.1899038727        9.4083955024
  H         5.4088905165        1.1740782713       10.1426332475
  C         6.7113911572        2.8126899138        8.3029641506
  H         4.6657488840        2.4730647893        7.5316529727
  H         5.4434337694        1.0175960155        7.5869343077
  C         7.8579481958        2.0148217661        8.9742458429
  H         6.9895833718        3.1481141556        7.2824508380
  H         6.4857432068        3.7496217855        8.8019199538
  C         9.2146281712        2.8543665442        9.0155041470
  H         7.8777215727        1.0677042421        8.4325726275
  H         7.5253884525        1.7534701544        9.9989009036
  C         8.9423440657        4.2449251446        9.6165448319
  C         9.7377647121        3.4687885343        7.7844341899
  C        10.1851054493        2.0142897637        9.8709024787
  C         9.3047184903        5.3160190936        8.8239305091
  C         8.4636804143        4.7045913343       10.8024093204
  C         9.8075125225        4.8311751221        7.6498633463
  C        10.0682702695        2.6829070100        6.6831188338
  H         9.6018612857        1.7694542625       10.7572256895
  H        10.2540039394        1.1248012609        9.3247738085
  C        11.4792718201        2.7675165878       10.1624253809
  S         8.9231530218        6.8663439120        9.4806314062
  C         8.3311057031        6.0733391008       10.8878705165
  H         8.1736017394        4.0663294789       11.5769310842
  C        10.0850410303        5.3883204158        6.4274667627
  H         9.9372683080        1.6387746374        6.7873925156
  C        10.2890054030        3.3158793792        5.4434659023
  H        11.2794448072        3.7287492930       10.6039803824
  H        12.0281071092        2.9276921539        9.1923875137
  C        12.2748613531        2.0883552500       11.3646796751
  C         7.8076481883        6.8109799630       12.1057265055
  C        10.3128786571        4.6508416888        5.2146492617
  H        10.2500721042        6.4510879866        6.3201995480
  C        10.6140651605        2.8359244759        4.1866027028
  H        13.3463641577        2.3740640265       11.4281797142
  H        12.1575411895        1.0011458874       11.1826509042
  C        11.6707802534        2.4144099021       12.7067549970
  C         7.8120496237        8.1832454886       12.3655790553
  C         7.2125275725        5.8987715420       13.1052939259
  C        10.6979171903        5.2238984143        3.9568236183
  C        10.8802299635        3.8589915485        3.3133181684
  S        10.8833824443        1.3069730442        3.5250414012
  H        11.7300331114        3.4644540628       12.9684840068
  H        10.5584785949        2.1484811088       12.6822793007
  C        12.1404994621        1.5475905451       13.8598734558
  N         8.2006863653        9.1269887310       11.4066892643
  C         7.4923943176        8.7399546492       13.5936067302
  C         6.8141618531        6.4508729447       14.3776189298
  H         6.8197840354        4.9101335071       12.7779546573
  C        12.0631971103        5.9245539706        4.0948989205
  C         9.6214455367        6.0463475671        3.1586462767
  C        11.2532328667        3.3550934138        2.0105276877
  C        11.4032614999        1.9649005618        2.0085637897
  H        12.7725359734        0.7125132025       13.4823328301
  H        11.2022098206        1.1696012880       14.3428300622
  C        12.8793633809        2.2451744428       14.9828745342
  S         8.0367305714       10.5951389534       12.0993889715
  N         7.7355147541       10.1571545436       13.5878250009
  C         7.0475540366        7.9436570899       14.6852752178
  H         6.1743386792        5.8757746399       15.0595538616
  H        11.9114631056        6.8312331309        4.7122702936
  H        12.3565597813        6.3762867915        3.1298455247
  C        13.1927028634        4.9644054121        4.7164927176
  H         9.0637596872        6.7105237648        3.9020200977
  H        10.0855316033        6.6715910081        2.3892675705
  C         8.4602756829        5.1774702992        2.7062330650
  H        11.6136948021        4.0379490723        1.2645681356
  C        11.8215585358        1.0998892811        0.8404827135
  H        13.9181332771        2.0567733696       14.7777274728
  H        12.6721182158        3.3108014258       15.0109480752
  C        12.4544044175        1.8267106751       16.4200711728
  C         6.7483238848        8.5110569639       15.9883834214
  H        12.8031294084        4.7392514131        5.7124615289
  H        13.2233804673        4.0217457891        4.2476663354
  C        14.6272026655        5.5417440387        4.7830338570
  H         7.9154404823        4.6968494414        3.5603375422
  H         8.7217642630        4.3916571782        2.0071505125
  C         7.4820092333        6.0620726548        1.9579685895
  C        11.8802266233       -0.3097575356        0.7576587875
  C        12.1694090063        1.8018849934       -0.4199332422
  H        12.6589063583        0.7528864865       16.5991568635
  H        11.3446159945        1.9454615538       16.6582490286
  C        13.0886461272        2.6266798769       17.5495081907
  H         6.7252612289        9.5867995277       15.9602402873
  C         6.4677255566        7.9968613194       17.2363693753
  H        14.5667839631        6.6103810921        4.9788132808
  H        14.9681210398        5.3833881273        3.7543696399
  C        15.4671630709        4.9324587509        5.9340075233
  H         7.3809357965        6.9875729495        2.4120671961
  H         7.8821571448        6.2738528534        0.9331269467
  C         6.2565655898        5.2536392001        1.7980812819
  N        11.5169045148       -1.2669149166        1.7437055279
  C        12.3206387168       -0.9358645942       -0.3564276988
  C        12.4994497134        1.1355600531       -1.5381953772
  H        12.0950286959        2.9227527561       -0.4655572200
  H        12.5573559081        3.5137985311       17.6859934028
  H        14.1535442730        2.6923992135       17.2272060578
  H        13.1184970293        2.0807793850       18.4428871972
  S         6.4334736897        6.3655111974       17.6447667712
  C         6.2244738753        8.9852210663       18.2884905170
  H        14.8535602242        5.1172534415        6.7977035608
  H        15.6410945888        3.9438294752        5.9026294030
  C        16.8272832407        5.5940755155        6.0434176014
  H         5.9636650776        5.1197810692        2.8096609009
  H         6.3837437504        4.2724106163        1.4182652785
  C         5.1838987473        5.9997101895        1.0191911130
  S        11.6816496130       -2.7401555077        1.1507583263
  N        12.2866826059       -2.3335578590       -0.2839305765
  C        12.5857052928       -0.2972961084       -1.5987776094
  H        12.5676983377        1.7700340047       -2.4476802508
  C         6.0361326775        7.0097237067       19.3144577190
  N         5.8786123312        8.3664362774       19.4068634860
  O         6.1389858768       10.2347964505       18.1490372879
  H        17.3786226741        5.4926136995        5.0917116299
  H        16.7451564939        6.6432449040        6.2437435727
  C        17.6832505188        4.8622280619        7.0889536961
  H         5.5711755617        6.5066780114        0.1621519134
  H         4.2687379228        5.3726995988        0.7738162553
  C         4.5499092908        7.2103964021        1.8511272768
  C        12.8834966728       -1.0874491740       -2.7615969431
  S         5.8160005512        5.9699083847       20.7961493112
  C         5.6930386512        9.1519289746       20.6363745264
  H        17.0882891048        4.6621166989        7.9577358058
  H        18.1715190715        3.9880740874        6.6510500715
  C        18.8319730210        5.8613594890        7.3979426763
  H         5.2299811521        7.6462663132        2.6429622180
  H         3.7331821023        6.7808737395        2.4383422544
  C         4.0215208518        8.3576508678        1.0704744450
  H        12.5584700328       -2.1801329500       -2.6882216918
  C        13.3070432205       -0.7350651280       -4.0245050390
  H         4.9977647805        8.6540874605       21.2422951685
  H         5.1496403428       10.0900696985       20.4018808864
  C         7.0115914779        9.4478000405       21.3751579992
  H        19.4951561774        5.3936125079        8.1274669083
  H        18.4960286933        6.7684969810        7.8500490417
  C        19.6758024517        6.1959456953        6.1632236520
  H         4.7266803492        9.0367636543        0.5741769854
  H         3.4766820007        7.9718020844        0.2668031414
  C         3.1531365678        9.2547396550        1.9695043771
  S        13.7267357283        0.8394330452       -4.5364968318
  C        13.3246292401       -1.8623484877       -5.0262451543
  H         7.3638880148        8.4985561228       21.6823830614
  H         6.8931036382       10.0620402713       22.2468076184
  H         7.7958606898        9.8772761306       20.7061652359
  H        20.0066715726        5.2353785117        5.7113168945
  H        19.2007725580        6.8810398833        5.4054886923
  H        20.7200353800        6.6302328995        6.4624252639
  H         2.7451531614        8.6920315803        2.8091308721
  H         3.6855850935       10.1424560421        2.2576456268
  H         2.3534899885        9.6708337384        1.3408082756
  C        14.0615390349        0.0838340141       -6.1271482931
  N        13.8806140823       -1.2724452685       -6.1374553934
  O        13.0472261742       -3.0965153864       -4.8736454583
  S        14.6032514101        0.9168012383       -7.6555854854
  C        14.0775086463       -2.0267707022       -7.3494726705
  H        14.2375295838       -3.1019961367       -6.9585074154
  H        15.0176884970       -1.9065542593       -7.8214418781
  C        12.8853848295       -2.1416302253       -8.2557459166
  H        12.7255907347       -3.1635991457       -8.5609035423
  H        13.1644714509       -1.6584570808       -9.2006232484
  H        11.8992378553       -1.7547469065       -7.9110362053
  H        -2.0680295839       12.8501450380       16.6038110425
  C        -1.7652888723       13.7962271599       16.2068823722
  H        -0.6230758997       13.8165160093       16.1172868622
  C        -2.1329366427       14.8277930789       17.2105986218
  C        -2.4479583481       14.0247075768       14.8184895843
  C        -2.8308170753       14.2323997636       18.4208411206
  H        -1.2351790575       15.3360004401       17.5669581592
  H        -2.8613573843       15.5717511229       16.8334517796
  H        -2.0592539238       14.9262538089       14.3833715291
  H        -2.2770853022       13.1425293999       14.1255686896
  H        -3.4877052892       14.1973552436       14.8071279295
  C        -1.8703065921       13.5635786014       19.4080059658
  H        -3.7749445042       13.6217084228       18.2691431788
  H        -3.2229039049       15.0903993059       18.9743214653
  C        -2.5234673230       13.2838353694       20.7833193134
  H        -1.5712088548       12.5818233417       18.9778045478
  H        -0.9554974735       14.0634123324       19.5119372072
  C        -1.5472206385       12.7873746868       21.8632886484
  H        -3.2587546457       12.4319917889       20.6094371797
  H        -3.0113265597       14.1535973446       21.2066136123
  C        -0.4793072396       13.7960069176       22.3366874649
  H        -2.1412207398       12.4199698616       22.6991975459
  H        -1.0816701149       11.9323232258       21.4261380300
  C         0.8580324727       13.1663491065       22.8040041334
  H        -0.1634844918       14.3536429642       21.5444424587
  H        -1.0488772348       14.3880176808       23.0783867868
  C         1.2887764646       11.8470405174       22.0910108629
  C         0.5913858236       12.4077168185       24.0927162175
  C         2.0927254106       14.0793436400       22.9464645919
  C         1.2012474100       10.7610656006       22.9442498295
  C         1.8515335031       11.4506002837       20.8373695042
  C         0.6937782449       11.0875836875       24.1682237886
  C         0.2599764561       12.9557181400       25.3312223430
  H         2.4522299748       14.5913300840       22.0176274626
  H         1.8355311552       14.8229413353       23.6915868413
  C         3.2704541656       13.3277312654       23.4558370043
  S         1.7605835502        9.2300847266       22.2999972376
  C         2.0128694802       10.0848913571       20.7589574540
  H         2.1026458489       12.1659334590       20.0032453452
  C         0.4896628725       10.3657361413       25.3344159031
  H         0.2361000799       13.9772248239       25.3156811413
  C        -0.0086329423       12.2885724860       26.4558422836
  H         3.6187448203       12.6041105740       22.7687498600
  H         3.0526674074       12.7895586450       24.4106864559
  C         4.5033255619       14.2154067940       23.8329481776
  C         2.5335896462        9.4329250895       19.5347586365
  C         0.0835718349       10.9129189106       26.5501531227
  H         0.6657964102        9.3228100046       25.2121985359
  C        -0.3959690878       12.6036015884       27.7479484810
  H         5.1597022732       13.5821273456       24.4994382713
  H         4.2035630650       14.9784154223       24.5780236881
  C         5.4387289787       14.8204069350       22.8127803792
  C         2.5174234077        8.0336071366       19.2102929382
  C         3.0639327218       10.2861854420       18.4242774719
  C        -0.1918940222       10.2454509219       27.8729489860
  C        -0.5989030425       11.5134616422       28.5576456681
  S        -0.5369136487       14.1291229731       28.4857714032
  H         6.1412191275       15.4953927275       23.1447921304
  H         4.7859940012       15.4983174099       22.2536664533
  C         6.0536784362       13.7518007519       21.8614627998
  N         2.2970784857        7.0420562766       20.1984664817
  C         2.8190364127        7.5678566942       17.9566022285
  C         3.1770024008        9.7475358733       17.1614770524
  H         3.2744825260       11.3340871482       18.4963615785
  C         0.9467564618        9.5533208264       28.5901543934
  C        -1.3390353035        9.2665853249       27.8540344158
  C        -0.8614470236       11.8846641481       29.8906484456
  C        -0.9136990766       13.2756557290       30.0162108336
  H         7.0835725740       13.9727011548       21.6614981109
  H         5.9351727881       12.8047625200       22.3973842662
  C         5.3644099492       13.7758957926       20.4738195878
  S         2.4975688334        5.6161984587       19.4568067298
  N         2.9054680518        6.1341332626       18.0043592873
  C         3.1944417118        8.2945143047       16.8421968295
  H         3.4844611663       10.3855711360       16.4047937443
  H         1.3553179944        8.6869922725       27.9659787833
  H         0.5346592848        9.1277525519       29.5021286208
  C         1.9990792161       10.4993674291       29.1904685904
  H        -0.9318340163        8.4372453632       27.2755686540
  H        -1.5930923213        8.8507943414       28.8434038566
  C        -2.6523226002        9.8024636161       27.4121398332
  H        -1.0590772509       11.0956514993       30.6079224595
  C        -1.3553854540       13.9492420444       31.2956875121
  H         5.3442328800       14.7695369516       20.0752374787
  H         4.3867424888       13.3159699816       20.6036406315
  C         6.1271112716       12.9043188421       19.4888588703
  C         3.4425415747        7.6190748538       15.6001600382
  H         2.4688317371       11.2198489838       28.4458430820
  H         1.5099747316       11.1262926267       29.9464029562
  C         3.0620423714        9.7336937745       30.0414934616
  H        -2.5159539291       10.2014759383       26.3793202762
  H        -2.9671671287       10.5755085727       28.0659641159
  C        -3.7431006746        8.8012983888       27.4626662939
  C        -1.5323027636       15.3538817683       31.5407196553
  C        -1.6205799510       13.1320821238       32.4549287043
  H         6.5686563029       12.0256443595       19.8836092707
  H         5.5232886372       12.4786169088       18.6946484690
  C         7.2154625311       13.6928397566       18.8381489314
  H         3.4146449023        6.5581584717       15.6205017692
  C         3.6224248563        8.0951248781       14.3465956465
  H         3.6470250191        9.1075506531       29.3800164868
  H         2.4827679162        9.1238832288       30.7137506945
  C         4.0781639354       10.6943446406       30.6545810638
  H        -3.5350820360        8.0190623782       26.7888095166
  H        -3.6876316998        8.2848198012       28.4359475783
  C        -5.1618245825        9.2761133581       27.2357695433
  N        -1.4214378397       16.3296075377       30.5333392062
  C        -1.8099386036       15.9006857060       32.7930694534
  C        -1.9968869823       13.6794444666       33.6828689149
  H        -1.5794434874       12.0495572121       32.3727476325
  H         7.4120752078       14.5061757617       19.5396555344
  H         8.1467375445       13.0748114956       18.7079177450
  H         7.0330771317       14.1345255403       17.8621414956
  S         3.8927766781        9.7895044757       13.9411745368
  C         3.7790611380        7.1774476819       13.2089957793
  H         4.1097378660       11.6705316407       30.1754947251
  H         3.7033965820       10.8605397192       31.6241761224
  C         5.5589266234       10.2532018575       30.5431458912
  H        -5.3120826757       10.1279801318       27.9128139231
  H        -5.8254951013        8.4563568188       27.4964079662
  C        -5.3491120825        9.8003155008       25.7806790665
  S        -1.3559475111       17.7696709835       31.3222417932
  N        -1.7766426492       17.2929527958       32.8075354364
  C        -2.1274177796       15.0863633702       33.9550451566
  H        -1.9905867221       12.9348037833       34.4706456107
  C         4.0126743078        9.2746274810       12.2268488946
  N         4.1357645176        7.9567751297       12.1327614324
  O         3.7479673627        5.8673841497       13.3067597554
  H         6.1445400189       11.0541571572       30.9190628644
  H         5.8507274463       10.1295520596       29.5446642050
  C         5.9746870956        8.9551960499       31.2939054884
  H        -4.5768887614       10.5180156127       25.4787628286
  H        -5.0784272416        8.9955316828       25.0255572339
  C        -6.7327159322       10.4408954387       25.6078556660
  C        -2.5722676150       15.6892738055       35.1708144233
  S         4.7979036556       10.1847069193       10.8895356680
  C         4.3650166206        7.1842837059       10.9181020038
  H         6.7072363563        9.1816654276       32.1043778436
  H         5.0526722354        8.7481108254       31.8228354190
  C         6.4421249338        7.7143936179       30.4148581250
  H        -6.9585746613       10.5453537752       24.5700402049
  H        -6.6510785786       11.5234764507       25.9113008963
  C        -8.0104507369        9.8510831965       26.2716426066
  H        -2.4702836638       16.8014492382       35.1989251178
  C        -3.0481040735       15.1439716446       36.3044764813
  H         5.0424021553        7.6974693924       10.2180828895
  H         4.8760513229        6.2114482361       11.1861362837
  C         2.9606887013        7.1207713419       10.2284089232
  H         7.4523875376        8.0274387472       30.1499076536
  H         5.9833967277        7.6725092082       29.4284667796
  C         6.3498271040        6.4218782988       31.2027337795
  H        -7.9895308387        8.7760304839       26.2032601449
  H        -8.1659123758        9.9955956703       27.3244683998
  C        -9.2038041781       10.3998132516       25.5884025030
  S        -3.3293576848       13.5093139253       36.5758560609
  C        -3.2312559047       16.0859999349       37.4459715927
  H         3.0430770169        6.6373612259        9.2896913316
  H         2.2175111515        6.5330440141       10.7562939401
  H         2.5104326056        8.1204683516       10.2316768414
  H         5.4738421584        6.2890604757       31.8078272113
  H         7.1086406674        6.4387369574       31.9173080949
  H         6.6316907960        5.5310115015       30.5994706817
  H        -9.5568724827       11.3345719102       26.0595611018
  H        -9.9548242074        9.5933519107       25.6080629271
  H        -9.1371483169       10.6442382064       24.5217273299
  C        -3.7757415429       14.0157707964       38.1774904628
  N        -3.7530347453       15.3602434146       38.4335390539
  O        -3.1530926345       17.3357721513       37.3650627672
  S        -4.6600948950       13.0041589759       39.2795225337
  C        -4.2125345502       16.0378432180       39.6296186049
  H        -4.5455964740       17.0287981687       39.4168834162
  H        -4.9891217142       15.3933832085       40.0263298830
  C        -3.1511942793       16.0211445706       40.7078808452
  H        -3.3406173173       16.6696018827       41.4939417070
  H        -2.9237960555       15.1028505541       41.1788641000
  H        -2.2687471712       16.4613831799       40.2118402616
