352
i=
  H         2.9044691175        3.8554830913       12.8255043200
  C         2.7275275392        2.8040012841       12.7454659225
  H         1.8136322811        2.8249097798       12.1922726448
  C         3.8009537534        2.0008678722       12.0005525646
  C         2.5115825715        2.0863390790       14.2100840875
  C         3.6509142142        1.9733675308       10.4576726174
  H         3.7603793844        0.9695306769       12.3036110639
  H         4.7270875356        2.2784669384       12.4069202401
  H         3.5131729472        1.8104699302       14.6322813556
  H         1.9501180544        1.1221099839       14.2210587437
  H         1.9404810137        2.6541592301       14.9811656213
  C         4.7899098512        1.1344590475        9.8828911525
  H         2.6836699879        1.6329698435       10.1674008451
  H         3.8289853153        2.9967343564       10.0180194601
  C         5.3390867253        1.6876559118        8.4845030772
  H         4.4088214612        0.0834854921        9.8462195036
  H         5.5486069120        1.0354277407       10.7239330743
  C         6.5170531255        2.6711158208        8.4794866706
  H         4.4097668057        2.0822006461        8.0233797306
  H         5.6443212205        0.8795251981        7.8508871781
  C         7.8109343081        1.9522778255        8.7358960726
  H         6.6405738445        3.2514284649        7.5529689336
  H         6.2164382497        3.4246248235        9.2491230757
  C         9.0050853254        2.8774820589        8.9852351157
  H         8.0425281229        1.2987919940        7.8728068071
  H         7.7610402082        1.3152473775        9.5789361082
  C         8.6442756151        4.2433247029        9.7049106812
  C         9.4026641265        3.6493407190        7.8072410477
  C        10.2816577297        2.2917502648        9.6378781889
  C         8.7381729065        5.4056579915        8.8680771444
  C         8.2267302620        4.6102707108       11.0064325877
  C         9.3548041420        4.9991147960        7.7083478925
  C         9.9524226658        3.0477339078        6.6880680954
  H         9.9641897042        1.7954176811       10.5806361921
  H        10.6995169215        1.5108610361        8.9888566309
  C        11.4739971465        3.2803610422       10.0436932010
  S         8.3435600546        6.8700731813        9.5676740925
  C         8.0682447825        5.9816142753       11.0822622159
  H         8.2324222628        3.8741309162       11.7684408117
  C         9.8021174454        5.6535720230        6.6021935288
  H        10.0131088624        1.9528278553        6.7132095582
  C        10.4562495519        3.6822838221        5.5955207803
  H        11.0950045880        4.2569358066       10.3403424475
  H        12.0040983829        3.4412896319        9.1563459857
  C        12.4923627356        2.7208662477       11.0558807808
  C         7.8312640525        6.7037755279       12.3782188984
  C        10.3724910776        5.0419273838        5.4476837884
  H         9.7873044916        6.8069192049        6.7096344095
  C        10.9869369553        3.2484886335        4.4286475185
  H        13.4457583486        3.2577997616       11.0685190395
  H        12.7106884882        1.6914537427       10.7729708061
  C        11.8854456908        2.8246526135       12.4586685896
  C         7.8866007687        8.1027042846       12.5820368663
  C         7.6229958321        5.8800511065       13.6410861136
  C        10.9209545474        5.7081054873        4.2157911432
  C        11.1662983995        4.3598527292        3.5658708529
  S        11.2678730774        1.7276776178        3.6224285645
  H        11.6497922947        3.8709480904       12.6737748307
  H        10.9947772378        2.2210871341       12.5726458409
  C        12.9030828905        2.4738096238       13.5214395920
  N         8.0519238127        9.0877986274       11.5681099951
  C         7.7153999710        8.6868022114       13.8403403088
  C         7.4108595986        6.5115998080       14.8551070426
  H         7.5169809736        4.8175934238       13.5911893529
  C        12.1917870840        6.5237756459        4.4924116647
  C         9.7383569733        6.4773279977        3.5439848352
  C        11.6816500101        3.9558356652        2.2912013590
  C        11.6356594261        2.6230940378        2.1021009295
  H        13.7865976900        3.1588479506       13.4898605259
  H        13.1948049213        1.4100395921       13.5023904717
  C        12.3740164290        2.7150333668       14.8960236566
  S         8.0771088594       10.6367468017       12.2410471144
  N         7.9188599835       10.1031233593       13.8117459904
  C         7.3905211204        7.9844380129       15.0090682148
  H         6.9943179827        5.8576118328       15.6810799976
  H        12.0038859728        7.3702855811        5.1940423366
  H        12.3752358200        6.9056515101        3.4664407075
  C        13.4874283529        5.7821957023        4.8549434191
  H         9.3730131915        7.1647489108        4.2704060170
  H        10.0837563841        7.1629514778        2.7550638700
  C         8.5765450539        5.6522091916        2.9122663523
  H        11.7823469508        4.7153858170        1.5190112789
  C        11.9987113972        1.9391832371        0.7855889069
  H        11.6052007648        3.4833880432       14.8220289143
  H        11.7307870038        1.8790242819       15.2056407439
  C        13.4054760862        2.8059729507       16.0278686311
  C         7.3032914753        8.6773972769       16.2064107139
  H        13.4398681917        5.4014621639        5.8947529787
  H        13.6717734956        5.0206044940        4.2101277241
  C        14.5989769937        6.7763240214        4.7877661537
  H         8.1325448962        4.9662779544        3.6047514695
  H         9.0042454727        5.0100609350        2.1522532120
  C         7.5601828896        6.5794140543        2.1756202583
  C        12.0923632114        0.5188277290        0.6351368764
  C        12.1695222526        2.7225716576       -0.4920679877
  H        14.2214208901        3.5003368740       16.0154492957
  H        13.9759890056        1.8915969248       15.8846146938
  C        12.7743932404        2.9062860581       17.4376833784
  H         7.4644319932        9.7273915141       16.1244974277
  C         6.8737471729        8.2917960233       17.4605548063
  H        14.3519499069        7.2702186390        5.7308092472
  H        14.5888559935        7.4124142100        3.9273857976
  C        15.9825235067        6.2717385167        5.0379503828
  H         7.0050014202        7.1549453364        2.9291916140
  H         7.9866047591        7.3767154941        1.5476786752
  C         6.6350699300        5.7862781802        1.2212646088
  N        11.8772669216       -0.3933632917        1.6531397957
  C        12.2279291680       -0.1037998093       -0.5864540770
  C        12.4871055685        2.0674756473       -1.6847335048
  H        12.2370457632        3.8298768835       -0.5012886032
  H        12.1804053321        2.0359016803       17.7211921700
  H        12.2537799201        3.8266843711       17.6119213084
  H        13.6042235827        2.8368692302       18.1751915263
  S         6.4664224760        6.7276459640       18.0752746456
  C         6.9200195801        9.3293802158       18.5414126992
  H        16.1606165668        5.6135193675        4.2180846235
  H        16.6374116436        7.0769912887        5.0131882586
  C        16.1663657542        5.6147191205        6.3961631397
  H         6.8774309053        4.7131030274        1.4572320989
  H         6.8712454989        5.9575612090        0.2252802858
  C         5.1205649992        6.1143375973        1.3594464007
  S        11.9872009703       -1.8950232356        1.0019199548
  N        12.2628260263       -1.4791256789       -0.5407149976
  C        12.4616426184        0.6106516610       -1.7945113503
  H        12.6005320039        2.6953690754       -2.5364815185
  C         6.3809156325        7.3986340854       19.6741190796
  N         6.5699880671        8.7534240098       19.7674091735
  O         7.0478521191       10.5203949181       18.2800666375
  H        15.6749269876        6.3229713058        7.1233795829
  H        15.5082068388        4.7196155632        6.4860703139
  C        17.6274954713        5.2460218845        6.8668078576
  H         4.6400230172        5.3827437747        0.7203271691
  H         4.8681786401        5.9172648040        2.3724224845
  C         4.6701844082        7.5433099836        1.0099774351
  C        12.8173659851       -0.1092309741       -2.9641435095
  S         5.8115896060        6.5394134346       21.1734630804
  C         6.5989312267        9.4934945944       20.9621203711
  H        17.6047266021        5.0036373090        7.9624687794
  H        18.0152317069        4.2732759654        6.5577333945
  C        18.7441713315        6.2739378944        6.5164822788
  H         4.3626569224        7.5282529158        0.0065700862
  H         5.5425655481        8.1493785655        1.0575153747
  C         3.5534260862        8.2374973088        1.8886507758
  H        12.6323291396       -1.1993556108       -2.9261767440
  C        13.2778233507        0.2996269905       -4.1962322475
  H         5.9035718663        9.0988198435       21.6370777953
  H         6.2093391821       10.4528641727       20.7118736694
  C         7.9878991154        9.5658406955       21.6638559048
  H        18.4284606795        7.3038071841        6.4027339243
  H        19.0693944173        6.1062558534        5.5052778295
  C        19.8919599410        6.2245540077        7.5132314820
  H         3.1563746085        9.0785055579        1.3366043187
  H         2.7262183227        7.5734732800        2.1809515837
  C         4.1108659435        8.7498959957        3.1912194197
  S        13.9120514082        1.8429246725       -4.5402286745
  C        13.2977386705       -0.7880489911       -5.2472656676
  H         8.1429760081       10.4558299513       22.3336800820
  H         8.8492445220        9.7145341303       20.9867917146
  H         8.0690731897        8.7420750896       22.2920706727
  H        20.5409791850        7.1028698943        7.3798626287
  H        19.5690276473        6.2007300931        8.5408147585
  H        20.6251920836        5.3485541886        7.2603576477
  H         5.1637807515        8.3305952130        3.4470863421
  H         4.2834556506        9.8018050505        3.0916229547
  H         3.4353274903        8.4453153843        3.9884496290
  C        14.2125742256        1.0696737722       -6.1566245282
  N        13.9152899601       -0.2865569250       -6.2780768324
  O        12.7930536125       -1.9070571648       -5.0805863306
  S        14.9528673105        1.7738318124       -7.6602397084
  C        13.9983177062       -1.1120090079       -7.5083064038
  H        13.9625186405       -2.1599257155       -7.1760821270
  H        15.0000005646       -0.9798253253       -7.8372998093
  C        12.8716615419       -0.9104942301       -8.4283199592
  H        13.0151468190       -0.9354787912       -9.5120256747
  H        12.4263031487        0.0766906823       -8.1238475292
  H        11.9850348660       -1.4652927346       -8.1918854138
  H        -3.1916937582       15.3624666175       16.4935290035
  C        -2.9535487447       14.2930307188       16.2890250608
  H        -3.8995401667       13.7432767541       16.5483882552
  C        -1.9253778227       13.8313402227       17.2856452497
  C        -2.4896544457       13.8763141609       14.8282643922
  C        -2.4289417937       13.8589679206       18.7612952184
  H        -1.5451958440       12.8864785657       17.0930976442
  H        -1.0740812965       14.5428513615       17.3173420545
  H        -1.4164843650       14.0998765138       14.6651254803
  H        -2.6334408777       12.8186461228       14.6469721055
  H        -3.0607275203       14.3682876743       13.9716757314
  C        -1.3673924578       13.4994510364       19.7144283328
  H        -3.2015197459       13.1189328733       18.8082119996
  H        -3.0516482367       14.7701768241       19.0867966177
  C        -2.0601397449       13.2067224101       21.0712974633
  H        -0.7328311736       12.6958670270       19.3587312551
  H        -0.6885525211       14.3838734646       19.8111475982
  C        -0.9496244107       12.7260810021       22.0150553776
  H        -2.7440927425       12.3904309774       21.0199704796
  H        -2.6052521305       14.0481274972       21.4903788133
  C         0.1437791895       13.6932811450       22.3415522495
  H        -1.2714573603       12.3810547875       22.9704518962
  H        -0.5425635662       11.8382805620       21.6151929619
  C         1.2797864113       13.0044266358       23.1599488829
  H         0.4759861405       14.2548887426       21.4621777952
  H        -0.3546792952       14.4226351703       22.9831905229
  C         1.7503926762       11.7526777339       22.4677441450
  C         0.8533223689       12.2815475343       24.3766647454
  C         2.4153977831       13.9473234320       23.5653256570
  C         1.5612450337       10.5918405575       23.2419092545
  C         2.3712808287       11.3828251628       21.2914689498
  C         0.9845964466       10.9642651801       24.4562808501
  C         0.3121847151       12.8912939134       25.4706904264
  H         2.6018676820       14.5467377737       22.6771791356
  H         2.1311396712       14.7056367039       24.2587415226
  C         3.7129108579       13.3419852323       23.9816710254
  S         1.9364514781        9.1178978579       22.5238291447
  C         2.4494377897       10.0307233255       21.0959770330
  H         2.6495179611       12.0774546006       20.5866051815
  C         0.5494918592       10.2788309660       25.5486596221
  H         0.1763075696       13.9433460998       25.4048677098
  C         0.0928847652       12.1992240709       26.6365539975
  H         4.0005883000       12.4658423334       23.4269554299
  H         3.5908171886       12.8792803303       24.9616715899
  C         4.8731243618       14.3536844991       24.1167079229
  C         2.9207656625        9.3716764399       19.8613929764
  C         0.2118917613       10.8177691731       26.7377287984
  H         0.6577730304        9.2146750720       25.3652832729
  C        -0.2833081857       12.5735750150       27.9554844851
  H         5.6676601977       13.9176420257       24.6826427938
  H         4.6659480943       15.2780034062       24.5990315505
  C         5.4215072364       14.7428262871       22.6912883352
  C         2.9109574619        7.9656660966       19.5633081167
  C         3.2350826924       10.2857995697       18.6559003020
  C        -0.0455720270       10.1147766043       28.0652805387
  C        -0.2291299635       11.5007309003       28.7636600484
  S        -0.8155984968       14.0885964382       28.6164829961
  H         6.1722503236       15.5269286684       22.8556694056
  H         4.6107366628       14.9565888659       21.9504262053
  C         6.2703305402       13.6726749988       22.0800509374
  N         2.6102779101        6.9595302279       20.4881479995
  C         3.1458627242        7.4561959848       18.3276527669
  C         3.5536561363        9.7434173272       17.3978862887
  H         3.1263092850       11.4162492388       18.6763293593
  C         1.1868186450        9.3402383350       28.5813890136
  C        -1.3258000990        9.2798870747       28.1312992902
  C        -0.5602312070       11.8749212406       30.0788389080
  C        -0.8725847115       13.2350927370       30.1612966307
  H         7.2600623320       13.7885782950       22.4197726664
  H         6.0121024007       12.6808041600       22.3526972702
  C         6.2796026852       13.8326571602       20.5258971925
  S         2.7762338293        5.4986445009       19.7944001131
  N         2.9758270235        6.0519078214       18.2932284748
  C         3.6059941382        8.2428946934       17.2644274889
  H         3.7217752399       10.3093276996       16.4703599748
  H         1.4762954358        8.7477253256       27.7209840967
  H         0.8999937350        8.6660237046       29.3935890506
  C         2.4806391078       10.0603925750       28.9112817760
  H        -1.2468573390        8.5223778136       27.4505009569
  H        -1.3498355447        8.8976742144       29.1175059643
  C        -2.6203985281        9.9975275540       27.8040457377
  H        -0.6585468316       11.1311839203       30.8531427084
  C        -1.2165925698       13.9762953731       31.4425148784
  H         5.9452462591       14.8148508498       20.2174901573
  H         5.5322995038       13.2023291390       20.0552047928
  C         7.7028204875       13.4866631567       19.9395498130
  C         3.8463805803        7.5575961648       16.0151231973
  H         3.0113841855       10.6083184614       28.1441743923
  H         2.2347447863       10.9162052133       29.5670931101
  C         3.3505964876        9.1125798194       29.6500218584
  H        -2.5668095798       10.7105506133       26.9712186352
  H        -2.8130539304       10.6054796615       28.6044064255
  C        -3.7714452528        8.9854068575       27.5005799896
  C        -1.4087310959       15.3436147795       31.6580557382
  C        -1.4552529981       13.2066789895       32.6827780605
  H         8.3915174079       14.3447152893       20.1053035609
  H         8.1711585674       12.5679164046       20.3794497786
  C         7.7002377387       13.4142142154       18.3383469642
  H         4.0008204641        6.4322669135       16.0334396543
  C         4.1463197257        7.9208292559       14.7389816765
  H         3.6425361518        8.2971914044       28.9163684406
  H         2.7925017383        8.6742756332       30.4991117716
  C         4.6531576814        9.7604669616       30.2681273652
  H        -3.5777255238        8.2954349250       26.6462995804
  H        -3.8942876290        8.3165278508       28.4353505377
  C        -5.0792859836        9.7013964564       27.3620648368
  N        -1.3079133358       16.2086430603       30.6249157386
  C        -1.7521005451       15.9760177930       32.8761824562
  C        -1.7459384486       13.8231491885       33.9341522514
  H        -1.5190442663       12.1185556689       32.7002539194
  H         7.9010815189       14.3944443764       17.8472830112
  H         8.4961166277       12.7100367163       17.9262234227
  H         6.7679406831       13.0732270700       17.8490889523
  S         4.2596635178        9.4402097613       14.0673851619
  C         4.2330251746        6.7771655629       13.7223134560
  H         4.8831769736       10.7228150256       29.7886230822
  H         4.3050904893       10.0784509499       31.2166871439
  C         5.8548167227        8.8759480786       30.2738242016
  H        -5.2034097330       10.4796109635       28.0535094731
  H        -5.8714955049        9.0111200641       27.6175765897
  C        -5.2189453408       10.1751135269       25.8830219614
  S        -1.3212208112       17.7815520719       31.1631867480
  N        -1.6449773741       17.3489742986       32.7421059381
  C        -1.9532786476       15.2879123811       34.0945118167
  H        -1.8463714057       13.2915933603       34.8592665227
  C         4.4428860031        8.6462826789       12.5583941029
  N         4.5283628448        7.2986580796       12.5760889923
  O         4.1308182591        5.5405870745       14.0021622792
  H         6.8720407600        9.3085038520       30.4635680347
  H         6.0021526872        8.3844249874       29.2817422381
  C         5.7386189142        7.7777182739       31.3751590077
  H        -4.3502703012       10.7851898689       25.5312319249
  H        -5.2963321603        9.2857544422       25.3052273367
  C        -6.4600601856       10.9529755308       25.6748936637
  C        -2.2724663077       16.0219253780       35.2440677690
  S         4.7199335075        9.4320370257       11.0513580251
  C         4.4541273800        6.4862156485       11.3730805145
  H         5.7320097315        8.1919509590       32.3609708915
  H         4.7283957717        7.3651191789       31.2900909149
  C         6.8491428696        6.7360564863       31.3579385127
  H        -6.4683789956       11.6853878621       24.9356259003
  H        -6.7241420151       11.4966491749       26.5948294202
  C        -7.5468101277        9.8701821096       25.4043815772
  H        -2.1644481768       17.0280904405       35.1211242429
  C        -2.8874365988       15.7263913528       36.4485494652
  H         5.1226209613        6.8958931797       10.5964899562
  H         4.8736871926        5.4875646870       11.4924371588
  C         2.9545289900        6.2856526694       11.0114286662
  H         7.0732645118        6.4971865599       32.4126526630
  H         7.8468962755        7.1493754246       31.1106055680
  C         6.4613229922        5.5636674746       30.4308582177
  H        -7.1794911402        8.9718378006       24.9090918794
  H        -7.7640789024        9.4768619098       26.4177244781
  C        -8.8493097904       10.5295402785       24.8580724621
  S        -3.4048948783       14.1444847635       36.9127426467
  C        -2.9429926408       16.8235312939       37.4345152341
  H         2.3347222609        7.2029890008       10.7648249233
  H         2.8556477992        5.7726601821       10.1313778103
  H         2.4909191364        5.7657645620       11.7902113182
  H         7.3571647673        4.9565573580       30.3400988037
  H         6.0778178321        5.8823011723       29.4417421438
  H         5.7342913331        4.8824575503       30.8498089983
  H        -9.4565517866        9.8769645011       24.2836395113
  H        -8.5552554424       11.2958039413       24.1469760915
  H        -9.4666958631       10.9249559971       25.7062440791
  C        -3.6097239509       14.9846763247       38.4821196899
  N        -3.4177375101       16.3136991673       38.5713914425
  O        -2.4140949190       17.9337203648       37.3785627542
  S        -4.3841807387       14.2215122611       39.8829792613
  C        -3.3382924500       17.2616483755       39.7461453191
  H        -3.7547557520       18.2265492876       39.5491865641
  H        -3.9747497452       16.8772120407       40.5813211255
  C        -1.9250367991       17.5035540322       40.3559597782
  H        -1.8387996878       18.5050067878       40.8031791604
  H        -1.7324959881       16.8034428414       41.2121193093
  H        -1.0647767675       17.4284887387       39.7055673749
