352
i=
  H         4.4674848071        1.6324356435       12.5060492897
  C         3.8680534738        2.5325632886       12.5915078647
  H         4.5601322015        3.3272003170       12.7270857740
  C         3.2372285371        2.9786196826       11.1912867633
  C         2.9320918171        2.5269355149       13.7349966921
  C         4.2113683057        3.0749828756        9.9979431173
  H         2.7056289330        3.9236696875       11.3382896142
  H         2.4414137926        2.3697601841       10.7979077653
  H         2.4446703764        1.5645184648       13.7614036094
  H         2.1267568546        3.2887560303       13.6776417534
  H         3.4132522332        2.7950625552       14.6437957809
  C         4.8039174166        1.7187780655        9.5298628817
  H         3.7640323675        3.6812793790        9.0691139960
  H         5.0587160210        3.7614229442       10.3446504065
  C         5.4494598440        1.8355202887        8.1306707526
  H         4.1731398141        0.8395494807        9.3690237208
  H         5.6377405211        1.4086181437       10.1772328712
  C         6.7161732210        2.7716066100        8.0948629088
  H         4.7388346393        2.0186303969        7.3062524234
  H         5.7990562026        0.8602426407        7.7951541454
  C         7.9730436571        2.1108781628        8.7019998127
  H         6.9329702002        2.9107933529        7.0201431247
  H         6.4459063609        3.8059987122        8.3904712502
  C         9.2835649054        2.9971967847        8.8056008137
  H         8.2051554785        1.3523447744        7.9449077767
  H         7.8272200984        1.5313015150        9.6106370108
  C         8.8777416101        4.2886292014        9.4760659279
  C         9.6714843930        3.7266204302        7.5472599041
  C        10.3235828566        2.2905039753        9.6325149769
  C         8.9835715833        5.3612174438        8.6806821440
  C         8.2110575090        4.4744889721       10.6949363257
  C         9.4837187782        5.0317029431        7.4087385218
  C         9.9976396873        3.1042608739        6.3611117121
  H         9.7576151615        1.8957121125       10.4735375159
  H        10.7428668399        1.4874901897        9.0749596491
  C        11.4131496811        3.2238131907       10.1419990138
  S         8.2706500869        6.7557139994        9.4448689211
  C         8.0870762745        5.7972639163       10.8958726950
  H         8.1333146968        3.7285746838       11.4380043349
  C         9.7997961559        5.6936906712        6.2685978628
  H        10.0572381522        2.0607726929        6.4556871505
  C        10.2974705128        3.7198574490        5.1598604605
  H        10.9757988866        4.0429288892       10.7986902429
  H        11.9315047463        3.8747036254        9.3983314612
  C        12.4630547699        2.4343354544       10.9600030296
  C         7.7029032682        6.4427067508       12.1220672119
  C        10.2272520021        5.0883196138        5.1109916070
  H         9.7624790874        6.7545595812        6.3232890188
  C        10.7477718634        3.3387841146        3.9016290914
  H        13.3883451826        2.9773777351       10.9215849982
  H        12.8571387000        1.5610822543       10.3526097280
  C        11.9677523644        2.0134362174       12.2713147274
  C         7.6749787773        7.8191511924       12.3601011461
  C         7.2154930985        5.6314143745       13.2509046121
  C        10.6609273462        5.7814758565        3.8765528078
  C        11.0328061176        4.4878785428        3.1199002821
  S        11.1056254086        1.8135475509        3.2810876485
  H        11.1724192082        2.6983906556       12.6490687290
  H        11.5270268829        1.0409034866       12.3209498083
  C        13.0376866580        1.9134555408       13.3289360560
  N         7.9793150440        8.8093383032       11.4653238927
  C         7.3226097908        8.4024956490       13.5934748358
  C         6.9237602433        6.1863541292       14.4919517560
  H         7.0091550050        4.5676963547       13.1625926466
  C        11.9068122000        6.6150903273        4.0267655815
  C         9.5365176015        6.5039980983        3.1463102115
  C        11.6302050232        4.0853526544        1.9279603638
  C        11.5598213140        2.6596331078        1.7841817003
  H        13.6095412927        2.8829666728       13.3272512415
  H        13.7884231739        1.1878875398       13.0403786627
  C        12.5198807775        1.6144051994       14.7403141715
  S         7.9553458709       10.2288689859       12.1937819576
  N         7.4053872406        9.8099447496       13.6236628533
  C         7.0209046632        7.6732368082       14.7767413290
  H         6.5815239285        5.4789394265       15.2625701889
  H        11.6169571054        7.4242627924        4.7103886412
  H        12.1251749735        6.9881716772        3.0351814625
  C        13.0607105758        5.7472638699        4.6031273194
  H         9.0794045300        7.2819095772        3.7173598705
  H         9.9770782300        6.9634876756        2.2583969231
  C         8.2862735335        5.6689297977        2.7441215986
  H        11.8120931036        4.8628728124        1.1904743790
  C        11.8293762990        1.9014968432        0.5391101464
  H        11.4249038169        1.4945514332       14.7294711461
  H        12.7856171146        0.5872080799       15.0884730556
  C        12.7465837538        2.7809663579       15.6406277006
  C         6.8350404078        8.3482893780       15.9930597249
  H        12.7632881713        5.1414033872        5.4803898811
  H        13.3535255651        5.0204193519        3.9485486539
  C        14.2866014716        6.5890370930        4.8901007754
  H         7.8891174397        5.0661399096        3.5956414794
  H         8.5102533397        4.9969344933        1.9173261174
  C         7.2547427927        6.6326244288        2.2363831483
  C        11.8092315331        0.4835459295        0.3726857313
  C        12.1764292259        2.6629848750       -0.7365217663
  H        12.1344642141        3.6042167176       15.1887824036
  H        13.7946661120        3.0510428125       15.5702451187
  C        12.3355373246        2.5737281066       17.0428358791
  H         7.2177544116        9.3549909712       16.0418842683
  C         6.5967794719        7.8943695201       17.2941498781
  H        14.0562709841        7.2354399530        5.7367738289
  H        14.6340046414        7.2219250856        4.0490135755
  C        15.4309976019        5.6615178379        5.2964346552
  H         6.8379273422        7.2640730295        2.9776515103
  H         7.6800676582        7.3204684838        1.4421226554
  C         6.0447741866        5.8812960199        1.6063245174
  N        11.4303550325       -0.3666552341        1.3277890995
  C        12.2368681146       -0.0899416356       -0.7824220319
  C        12.3657186434        2.0742747299       -1.9559808942
  H        12.0725770722        3.8094911316       -0.6976587708
  H        12.0419770475        3.5216573904       17.5287312061
  H        13.0917616373        2.0665025720       17.6178135933
  H        11.4917432727        1.9273114541       17.0411121619
  S         6.2496439582        6.2508865730       17.7593438993
  C         6.6565775724        8.9447226783       18.3807035216
  H        15.1267138878        4.7281458104        5.8681566711
  H        15.9419061839        5.4076715126        4.3990874480
  C        16.5960848879        6.2669987293        6.0890510681
  H         5.5935704787        5.2088956350        2.3439645249
  H         6.4486240680        5.2659097146        0.8054877937
  C         4.9789721328        6.8562563753        1.0661532653
  S        11.7891313454       -1.8857598626        0.8309301392
  N        12.1825177015       -1.4825090183       -0.6832020883
  C        12.4412842713        0.5906773634       -1.9944447795
  H        12.6123709744        2.6722745858       -2.8263794004
  C         6.1025829945        6.9858536721       19.3810113685
  N         6.2237455128        8.3289776037       19.4839909596
  O         6.8306268513       10.1879153450       18.2967162742
  H        16.9589550824        7.1531110853        5.5183100157
  H        16.2683044854        6.7649626546        6.9934560407
  C        17.7287118783        5.2151044999        6.3717148383
  H         5.4325994896        7.6622940538        0.5622759798
  H         4.4278878239        6.2578689141        0.3149515132
  C         4.0918281275        7.3055274461        2.2558081180
  C        12.8255623121       -0.1086302375       -3.1815782931
  S         5.7575121822        5.9888805089       20.7919474926
  C         6.1453137750        9.0713254824       20.6911613102
  H        17.4073337307        4.2648686047        6.7437699879
  H        18.2772484034        4.9916752954        5.3886603349
  C        18.7178219340        5.9226316485        7.3079656178
  H         4.7085980263        7.4363533597        3.1315826487
  H         3.4581454039        6.4964372093        2.5076612408
  C         3.2663363465        8.5408667210        1.8995950825
  H        12.7779858820       -1.2023171687       -3.1115427647
  C        13.2479395515        0.1987766234       -4.4567192285
  H         5.6172299902        8.4967478516       21.5158113679
  H         5.4640280064        9.8926904441       20.4832137275
  C         7.6180663159        9.3802500627       21.0351076327
  H        18.8182412873        5.2042236585        8.1772067721
  H        18.3454538275        6.7075675091        7.8686523512
  C        20.1385232473        6.1911984651        6.7897668192
  H         2.7888875102        8.5202969223        0.9059983125
  H         2.4541409151        8.6042210899        2.5944244766
  C         4.0360521640        9.8903778002        1.9189434520
  S        13.6577169571        1.7299304741       -5.0172541151
  C        13.4876931968       -0.9112964874       -5.3828923295
  H         8.0579266307       10.1807142434       20.3955163668
  H         8.2845313233        8.4996573539       20.9835750414
  H         7.6233677876        9.8714720210       22.0046037084
  H        20.6710721212        5.3255353268        6.3965962477
  H        20.1847240947        6.9947084789        6.0288459609
  H        20.7125573574        6.4887878752        7.6475005320
  H         4.8830237105        9.7783346492        2.6198742593
  H         4.5791326446       10.0542178058        0.9702566582
  H         3.4193012934       10.7040226376        2.2447568182
  C        14.1279411544        0.9998490144       -6.5002515789
  N        14.0233521650       -0.3758963801       -6.5232418237
  O        13.3391978170       -2.1416154856       -5.1598084292
  S        14.6027958408        1.8760151140       -7.9219809241
  C        14.1926801659       -1.0499189271       -7.7840314906
  H        14.4593853781       -2.0856595223       -7.5417471320
  H        15.0967494660       -0.7099176346       -8.3300654348
  C        12.8637817608       -0.9966769918       -8.7032790324
  H        12.0396179607       -1.0948455352       -7.9220807715
  H        12.8950370241       -1.8641910223       -9.4257739584
  H        12.7835628327       -0.1655926813       -9.3580693322
  H        -3.7900523106       14.6200277501       15.8440345428
  C        -3.4447197476       13.5849201579       15.9130503095
  H        -4.2998303584       12.9549307460       16.0544610636
  C        -2.4872769244       13.4493581632       17.1072091488
  C        -2.6915930785       13.1698719631       14.6154317543
  C        -3.2198581199       13.3909172472       18.4421117047
  H        -1.8949902566       12.5101873482       16.9855644008
  H        -1.8651381385       14.3297605074       17.1030816365
  H        -3.2574617584       13.0739497100       13.6371434446
  H        -1.8723349515       13.8259594028       14.4195048978
  H        -2.1412390580       12.2356934593       14.6905503168
  C        -2.2043162241       13.0952503800       19.5736992534
  H        -4.0882390625       12.7775025596       18.4763186347
  H        -3.5496011667       14.3381680859       18.7140413651
  C        -2.6936754387       13.1166561683       21.0796911578
  H        -1.7861833666       12.0913743972       19.4572085138
  H        -1.3959715888       13.7702465986       19.4612055392
  C        -1.5610287614       12.7707225203       22.0613381206
  H        -3.4789359823       12.4039878006       21.3173176153
  H        -3.0532242138       14.0793046173       21.2524862855
  C        -0.3227941712       13.6944392726       22.1768521602
  H        -1.9884974877       12.5302598443       23.0062932162
  H        -1.3125193540       11.7505189124       21.8876553722
  C         0.9441650149       13.1344182148       23.0134821249
  H         0.1112436171       13.8559906153       21.2283686861
  H        -0.6172416825       14.5897801200       22.6869957521
  C         1.4317296441       11.7972581017       22.3510107579
  C         0.5063025695       12.3362044377       24.2728699366
  C         1.9614493840       14.1807756637       23.1315973883
  C         1.1875369664       10.6831931702       23.1339710128
  C         2.0225686993       11.5274541995       21.0903143305
  C         0.5955389586       10.9786208076       24.3983864238
  C         0.1199365431       12.9431017437       25.4984855675
  H         2.1667200744       14.6224276084       22.1684923268
  H         1.5435455228       14.9561393203       23.8070464302
  C         3.2311591822       13.7203211355       23.8133760412
  S         1.8250043207        9.2480887030       22.4366882043
  C         2.3340494804       10.2152383263       21.0021233597
  H         2.1457280015       12.3161725512       20.4092080129
  C         0.3073215242       10.3593659420       25.5687768761
  H         0.0370786995       14.0141934885       25.4333752530
  C        -0.2222799876       12.3310571525       26.6866577720
  H         3.7126119700       12.8278516040       23.3395806769
  H         3.0360924887       13.3661365667       24.8586962437
  C         4.3007959545       14.8377028505       23.9933779743
  C         2.7816575521        9.5425245578       19.7515333871
  C        -0.1726730486       10.9605950615       26.7690670514
  H         0.5303275172        9.3920752390       25.6358033923
  C        -0.6203375269       12.7241124976       27.9539630232
  H         4.8939776136       14.4895103439       24.8369816287
  H         3.7103259839       15.6323296331       24.3996308143
  C         5.0802128550       15.2320759265       22.7545327991
  C         2.6782830817        8.1526344596       19.4119982124
  C         3.4440871796       10.4271225780       18.7070084502
  C        -0.5150152755       10.2933375180       28.0757432392
  C        -0.7754562358       11.6786201749       28.7800830922
  S        -0.9254460245       14.3301702825       28.5029746074
  H         5.4516887504       16.2344881056       22.8506289030
  H         4.5072873755       15.0882003275       21.8234884431
  C         6.4079802573       14.4365396373       22.6870938894
  N         2.1984880313        7.1876259348       20.2922456998
  C         2.9504823218        7.6443840280       18.1310859660
  C         3.6058459133        9.9406915132       17.3829062822
  H         3.7884642074       11.3912731200       18.9725470643
  C         0.7043083892        9.5429319926       28.5264294779
  C        -1.8240488150        9.4525653024       27.8187858320
  C        -1.2465857704       12.2233054921       30.0392729750
  C        -1.3399615860       13.6104841547       30.0406268209
  H         7.1083910038       15.0127784100       22.0972411451
  H         6.8443067106       14.3521184156       23.7471430462
  C         6.3567910574       13.0080003122       22.1474744159
  S         2.3445819560        5.7495720546       19.5427401436
  N         2.7971029433        6.2808908204       18.1006093028
  C         3.3367923056        8.5304069105       17.0121581279
  H         4.1093421286       10.5995449753       16.7003511581
  H         1.1364454778        8.8654258940       27.7794872768
  H         0.3857768576        8.9835815034       29.3833617137
  C         1.9143566314       10.3904075980       28.9667494298
  H        -1.6594880975        8.9392443102       26.8653222276
  H        -1.9395779811        8.7994023421       28.6973814254
  C        -3.0415100042       10.2939381843       27.6464467184
  H        -1.5376612973       11.5426767232       30.8620237444
  C        -1.7315473635       14.4330099629       31.2149832050
  H         5.7291530265       12.3890923268       22.7792903458
  H         7.3549353408       12.5625647435       22.2420279417
  C         5.8923631978       12.8602348753       20.7487126051
  C         3.4243766075        7.8013673360       15.8169623825
  H         2.1896480398       11.0556873527       28.1911533534
  H         1.5846745619       11.0393131336       29.8043612939
  C         3.0595264151        9.6103698077       29.5814982390
  H        -2.7997779205       11.0881638929       26.9530097402
  H        -3.3127123461       10.7814467859       28.5926569576
  C        -4.2234938210        9.4822332482       27.1132762718
  C        -1.7656228295       15.8389175355       31.3677904344
  C        -2.2298274246       13.7376233140       32.4181583738
  H         5.5911813276       11.8091042438       20.7388734232
  H         4.9713799430       13.4481231749       20.6089913090
  C         6.7982409807       13.1879687185       19.6638024356
  H         3.3472780866        6.7050720185       15.9298499300
  C         3.7148044284        8.2818097851       14.5428360595
  H         3.2836782002        8.8048546985       28.9526373389
  H         2.7871502960        9.1157342212       30.5058363595
  C         4.2790037430       10.5800235525       29.7858175860
  H        -4.0719949167        9.0665230404       26.1001537007
  H        -4.4211395363        8.6911136344       27.7581670382
  C        -5.5772877374       10.2568018919       27.1621392748
  N        -1.2940844791       16.7637465376       30.4336212808
  C        -2.0652495798       16.4760131876       32.5300967731
  C        -2.5347661606       14.3546287399       33.6169952274
  H        -2.2801818692       12.6424671250       32.3645262178
  H         6.9193362531       14.2056997687       19.4719350878
  H         7.7338162034       12.7379892161       19.9702603797
  H         6.4816218317       12.8134466251       18.6924235194
  S         4.0853083347        9.9065885965       14.0420504948
  C         3.7934045627        7.2171766993       13.4800584455
  H         4.3532335262       11.2649613233       28.9233812457
  H         4.1044697079       11.1527385078       30.7188564691
  C         5.6249562115        9.9672730608       29.7715774788
  H        -5.4008934722       11.1625389735       27.6309845550
  H        -6.2896982953        9.7269556938       27.8242772590
  C        -6.1557426458       10.3786823369       25.7303967798
  S        -1.1150873772       18.1761718265       31.1558713426
  N        -1.9541479078       17.8402592678       32.4627680498
  C        -2.5126743620       15.7943019454       33.6612457631
  H        -2.8923471001       13.7507892072       34.3857243184
  C         4.3284732836        9.1162177945       12.4973456622
  N         4.2027395015        7.8045053449       12.3755546679
  O         3.4930628340        6.0714127484       13.7073589241
  H         6.3633230936       10.8001328345       29.6794474273
  H         5.7923328417        9.4190349836       28.8676421664
  C         6.0129674353        9.0029045628       30.9157726954
  H        -5.3110734076       10.8279754761       25.1880323062
  H        -6.1249567304        9.3746156022       25.2987734424
  C        -7.4686729584       11.1324974961       25.6483847534
  C        -2.8030746040       16.5336818771       34.8686479216
  S         4.5237293929       10.0525025966       11.0272897877
  C         4.2692529647        7.0102330106       11.1911608158
  H         7.0461962785        9.0806286020       31.1715214161
  H         5.5753673784        9.4640987235       31.8137632860
  C         5.5476507623        7.4919463545       30.8618188331
  H        -7.4387116840       12.2042609594       25.3860654034
  H        -8.1111488019       10.9087430073       26.5542424214
  C        -8.3169495658       10.5817755597       24.5502944654
  H        -2.4505169449       17.5526525892       34.7417330581
  C        -3.1606747741       16.1757537125       36.1898774372
  H         4.8400776569        7.3259171290       10.3176455188
  H         4.7165769012        6.0349802195       11.4498424309
  C         2.8512454589        6.8591976220       10.6486699496
  H         6.0307234231        6.9636713939       30.0743995970
  H         4.4568387217        7.5088262590       30.7498382204
  C         5.8524701277        6.6378633948       32.0591812102
  H        -8.2811693484       11.1471407642       23.5938257591
  H        -8.1290393843        9.5889257404       24.3118334380
  C        -9.7981883954       10.5217584741       25.1070103465
  S        -3.5197904263       14.6116645898       36.9278896852
  C        -3.1607151563       17.2842849751       37.1836635059
  H         2.6393335049        7.8689480862       10.3350581808
  H         2.7512989479        6.1502166533        9.7543401727
  H         2.0526751872        6.6059820176       11.3367946606
  H         5.1322097038        6.6780668013       32.7777460501
  H         6.7617355270        6.8645648461       32.5790615328
  H         5.9361236810        5.5811497336       31.6746066612
  H       -10.0097970378       11.3933130051       25.7168109857
  H       -10.0895917783        9.6417320276       25.6687806270
  H       -10.5499012996       10.4792809348       24.2771502951
  C        -3.5790709095       15.4273942354       38.4873204647
  N        -3.6144473853       16.7771591617       38.4167255607
  O        -3.0101891097       18.4249915475       36.9069949239
  S        -4.0841048479       14.6922115244       39.9921170644
  C        -3.7561649372       17.6314981523       39.5703947689
  H        -4.1774749922       18.6208944494       39.3999666302
  H        -4.4765582189       17.2615365597       40.2397371647
  C        -2.4484904295       17.7717908199       40.3300415703
  H        -1.9278323575       16.8349200184       40.7463919048
  H        -1.7428789036       18.2205465733       39.6054868737
  H        -2.5669720358       18.5343690072       41.2046229512
