352
i=
  H         4.2240922422        1.1505670576       12.9001360184
  C         3.6010717729        2.0148386859       12.7710680712
  H         4.3675419705        2.8319103141       12.8891180345
  C         2.9028695447        2.1436505339       11.4347529299
  C         2.6169084764        2.3574535153       13.9563472691
  C         3.8889110669        2.3594613241       10.3328273872
  H         2.1536869987        2.9720218871       11.3525437272
  H         2.2862557826        1.2108641931       11.3248126671
  H         1.8792320723        2.8718529417       13.4518859844
  H         2.9311517645        3.1408852595       14.6064218277
  H         2.1944372820        1.5284548104       14.5475511951
  C         4.5519785540        1.0180218180        9.9218518880
  H         3.4729386581        2.9063343815        9.4970013215
  H         4.6619827659        3.0140744872       10.5395653594
  C         5.3069003328        1.1994651956        8.5870350725
  H         3.8895925437        0.1468148318        9.6656936462
  H         5.2577842491        0.7201499719       10.6918227022
  C         6.5399216459        2.1203607440        8.6264493294
  H         4.7219666395        1.7365888020        7.7631261327
  H         5.6437525668        0.2640410062        8.1337613659
  C         7.8891970231        1.4326867333        9.1033405940
  H         6.7331306317        2.7968732185        7.7571059892
  H         6.3103109048        2.8233772426        9.3940586420
  C         9.0433095130        2.4840083460        9.3887549332
  H         8.2156433939        0.7406959859        8.3567454562
  H         7.7080952205        0.7622831121        9.9155422547
  C         8.6551892515        3.8353788629       10.0474507289
  C         9.4831050545        3.2060691340        8.1439804773
  C        10.2555960900        1.7609476110       10.0996209463
  C         8.7691137521        4.9193748715        9.2418616959
  C         8.4388629033        4.2430981595       11.4035997601
  C         9.2093657405        4.5145028749        7.9395857848
  C        10.0195069523        2.5241951876        7.0258716694
  H         9.8824138680        1.2214404904       10.9668491201
  H        10.6110589920        0.9486946899        9.4807705115
  C        11.4462140310        2.6331795564       10.3273645184
  S         8.2256870473        6.4062246085        9.9765216091
  C         8.0762607209        5.5804047594       11.5019036536
  H         8.3887149368        3.5586290361       12.1759884071
  C         9.6030049070        5.1884948015        6.7589841738
  H        10.1945621610        1.4387753782        7.1927789022
  C        10.2824376103        3.1320843290        5.8089694645
  H        11.2419820381        3.6219378583       10.5393249932
  H        12.0090469315        2.6734794534        9.4335450810
  C        12.4648832332        2.0884704290       11.4105058661
  C         7.5619186222        6.1918732066       12.7578537782
  C        10.1850575263        4.4688612203        5.6467474192
  H         9.3145102562        6.2489914412        6.6020439839
  C        10.6872137223        2.7035221630        4.5599657802
  H        13.4237954592        2.5949361665       11.0863049845
  H        12.7463780009        1.0726576101       11.3450054800
  C        12.1731008552        2.4243658652       12.8831722470
  C         7.3793252296        7.5979461090       13.0519009213
  C         7.2837851968        5.2928144499       13.9060822459
  C        10.6722504928        5.0810202215        4.4056386951
  C        10.8768294241        3.7609518408        3.7163273609
  S        10.9779976572        1.1567151009        3.9298705191
  H        13.0329388769        2.9131249292       13.3016964838
  H        11.3512119854        3.1282065011       12.9413305261
  C        12.0507894157        1.1385719109       13.7726958288
  N         7.5734306189        8.5451438232       12.0444570998
  C         7.1440071758        8.1532616820       14.2493199452
  C         6.7817385717        5.8592837169       15.0603862242
  H         7.3226447971        4.2599808259       13.7904744437
  C        12.0492135519        5.8763974575        4.4957460633
  C         9.5727031618        5.9625794174        3.6813540404
  C        11.2683898177        3.3252329447        2.4476080682
  C        11.2857708961        1.9550663434        2.4111765879
  H        12.9902320942        0.7104140795       13.6790114725
  H        11.2124620151        0.5542309689       13.3223729584
  C        11.7920055435        1.5096702040       15.2425657399
  S         7.4253468753       10.0812079000       12.7212238535
  N         7.1023036692        9.5678742605       14.2347979378
  C         6.8010735628        7.3242973511       15.3672692700
  H         6.6432375825        5.2123507039       15.8692324611
  H        12.0211428816        6.5977226230        5.2649910597
  H        12.2199532503        6.4782278454        3.6604538025
  C        13.3098720284        5.1532336241        4.9141030014
  H         9.2157210550        6.6419751564        4.3963969929
  H        10.0841811396        6.4955610469        2.8789452280
  C         8.3161959870        5.2829754980        3.1500446477
  H        11.5264959438        3.9634116422        1.6156901415
  C        11.5864445339        1.2542880296        1.1290871912
  H        11.2621756687        2.3799013341       15.4972087150
  H        11.2631344559        0.6697191310       15.7588447495
  C        13.1500727094        1.6511847319       15.9500849744
  C         6.5059245969        7.9866347774       16.6883235170
  H        13.0425092961        4.6181850506        5.8436211873
  H        13.6172741979        4.4856218397        4.1588967112
  C        14.3969591435        6.1941911117        5.2525138785
  H         7.8685474589        4.5325282704        3.8136587209
  H         8.5380644865        4.6898608842        2.2819120544
  C         7.2120608911        6.2329458041        2.7105907621
  C        11.7785765948       -0.1901712721        0.9912884192
  C        11.8719354546        2.0002117608       -0.0812707141
  H        13.8008116901        2.3639550318       15.4634934638
  H        13.7282697611        0.7555791214       15.8347658610
  C        13.0255901033        2.0325044227       17.4467042602
  H         6.5992866141        9.0723778860       16.6081376281
  C         6.3839186379        7.4767981593       17.9309271683
  H        14.1848555073        6.8308026084        6.1699961123
  H        14.5274978667        6.9024265370        4.4764757134
  C        15.7753635596        5.5095708937        5.4744179776
  H         6.7338783585        6.7078037558        3.5334580472
  H         7.7156728578        7.0549558243        2.3113401137
  C         6.2187070596        5.6838481974        1.7476735173
  N        11.6390376371       -1.1101678760        1.9871091851
  C        12.1514330744       -0.7909732513       -0.2096569046
  C        12.1595386197        1.4026654827       -1.2757865993
  H        11.9184767907        3.0478710856       -0.0691853707
  H        12.7260086788        3.0946061085       17.6297137054
  H        13.9323021026        1.9120542852       18.0736959870
  H        12.1892542902        1.5493652781       18.0091657074
  S         6.0410756809        5.8442609241       18.2612437247
  C         6.2379659372        8.4625316067       19.0148220714
  H        15.8973352289        4.7568998231        4.7000231612
  H        16.6368672876        6.1554136773        5.3052201608
  C        16.0370929568        4.9563017711        6.8233351456
  H         5.6172334459        4.9500346294        2.1915277385
  H         6.7799968689        5.2338441771        0.9528506702
  C         5.2378940915        6.8557964860        1.1917496897
  S        11.6991324526       -2.6525817001        1.3228052310
  N        12.3129497451       -2.1763832066       -0.0894152169
  C        12.4018458930       -0.0753841037       -1.3631799898
  H        12.3983230868        2.0033964060       -2.1524447368
  C         5.8907576632        6.3666693171       19.9836751167
  N         5.9278053256        7.7439287471       20.0912540073
  O         6.2142489023        9.7026450970       18.9268234536
  H        15.6839543144        5.6140582564        7.6516529156
  H        15.4001426006        4.0675481779        7.0204191193
  C        17.5176952692        4.6252199542        6.9852385640
  H         5.8161667701        7.6284847419        0.6689521216
  H         4.5827488605        6.4604886029        0.4370156307
  C         4.1821023375        7.3822454476        2.2133124163
  C        12.6652438120       -0.8350853987       -2.5800956364
  S         5.3310256409        5.4161406850       21.2270409273
  C         5.9274629269        8.4021768419       21.4168813071
  H        17.7198139541        3.9375219079        7.8194512858
  H        17.8503785930        4.0505725436        6.1302579115
  C        18.4844773688        5.7209056591        7.3131978864
  H         4.7134458476        7.8726647650        3.0595338119
  H         3.6502103721        6.5668235420        2.6827211549
  C         3.1514475219        8.3626726132        1.5291681332
  H        12.6274736543       -1.9204258601       -2.3462599225
  C        13.1705492390       -0.4713666603       -3.7963156120
  H         5.1413666160        8.0796612589       22.1197235713
  H         5.6785332037        9.4782650679       21.2581585439
  C         7.2581281527        8.3796041452       22.1274411926
  H        18.8913917679        5.6646327345        8.3297527508
  H        17.9268696117        6.7113017652        7.2514567432
  C        19.6448156309        5.8299609131        6.2605522196
  H         2.6112650573        7.7765357577        0.7877447226
  H         2.4262768138        8.7614048767        2.3059901605
  C         3.8397433969        9.5295683748        0.8993501971
  S        13.6766464831        1.1118022531       -4.3455606419
  C        13.3609241125       -1.5672607999       -4.7769414464
  H         7.9580006617        7.8655761071       21.5249218307
  H         7.1850853107        8.0557283667       23.1918474167
  H         7.5688912133        9.4210893030       22.2204063379
  H        19.1329688065        5.9289566278        5.3063764285
  H        20.3598347691        6.6156315783        6.3877949763
  H        20.3348726041        4.9645396431        6.1873834326
  H         3.8348423647        9.2435694009       -0.1547041034
  H         3.2351930884       10.4273899670        0.9527230298
  H         4.8635441454        9.7086768919        1.2308447409
  C        13.8875542077        0.3336083885       -5.9507290818
  N        13.8345143591       -1.0372407176       -5.9364445034
  O        13.1700709915       -2.7518428532       -4.6204378622
  S        14.5219496826        1.1445041756       -7.3966821724
  C        14.0164363937       -1.7537791522       -7.2356744020
  H        14.0151769192       -2.8174634922       -6.9966062762
  H        15.0475407980       -1.5532442823       -7.6672450002
  C        12.9156679588       -1.7748690996       -8.3333384557
  H        13.0789536987       -0.9756011071       -8.9566402107
  H        11.9596323113       -1.7222235802       -7.7957472947
  H        12.9925624334       -2.6602551458       -9.0047288943
  H        -3.4161211641       14.9016303353       16.5845498572
  C        -3.2284605385       13.8612547149       16.4938704120
  H        -4.2194729823       13.3673245527       16.8023140620
  C        -2.1025855343       13.4248842890       17.4366907145
  C        -2.7790582374       13.6820958599       15.0447097573
  C        -2.3722541800       13.8196534483       18.8430200562
  H        -2.1808057832       12.3224720997       17.4045208173
  H        -1.1517518518       13.7820870428       17.2011231401
  H        -3.6618835229       13.7674014838       14.4022563622
  H        -2.0271136495       14.4440616366       14.6824094162
  H        -2.2623140180       12.7469230572       14.8971490051
  C        -1.9371535856       12.7424200289       19.9540123310
  H        -3.4150888685       13.9280017773       19.0178887757
  H        -1.9938755865       14.7976463522       19.0067031543
  C        -2.3757383494       13.0694370791       21.3539600811
  H        -2.2297631353       11.7664023823       19.6278521650
  H        -0.8791554861       12.6183468560       19.9043830315
  C        -1.4178542858       12.4107265847       22.3889165582
  H        -3.3666786722       12.6565116413       21.5405100331
  H        -2.3798027756       14.1470067808       21.6350611962
  C        -0.2522068561       13.4168200762       22.4738704224
  H        -1.8608663254       12.3569462257       23.3920160190
  H        -1.1953464626       11.3842173150       22.1228185628
  C         0.9466712470       12.8651078086       23.3205367465
  H         0.0049807623       13.8801351806       21.5388400541
  H        -0.5869637343       14.3421366974       22.8793275485
  C         1.3111213017       11.6104513665       22.4928941786
  C         0.6355298385       12.0011985798       24.5142434511
  C         2.1710909401       13.8348796127       23.5464641353
  C         1.1414604541       10.4546852763       23.1900148157
  C         1.7166137033       11.3158302384       21.1622330132
  C         0.7904685843       10.6393762447       24.4979199609
  C         0.0999611182       12.4902109849       25.6596433612
  H         2.1666277754       14.5098316204       22.6960730102
  H         2.0295311862       14.5466611815       24.3938806364
  C         3.4509323423       13.0977360145       23.8815847115
  S         1.7284436824        9.0583055264       22.3620632893
  C         2.0193380349       10.0203809530       20.9886244327
  H         1.7319672435       12.1983243088       20.4711639744
  C         0.4842668685        9.8624114035       25.5609131675
  H        -0.1803936560       13.5479400178       25.7447182445
  C        -0.1679811465       11.7346946400       26.7356834340
  H         3.8044510407       12.1809307432       23.4300528415
  H         3.3886614610       12.8109910104       24.9406600087
  C         4.6684738905       14.0573777965       23.8640486501
  C         2.4295477504        9.3101703411       19.6595845677
  C        -0.0394402467       10.3661566522       26.7455117050
  H         0.6906065346        8.7795129656       25.4758005653
  C        -0.5036174457       12.0461651319       28.0222878384
  H         5.5925411539       13.6322983879       24.3447862401
  H         4.4867622438       14.9605165359       24.4460424329
  C         5.0392920249       14.3911542208       22.4383544154
  C         2.4913011175        7.9037143696       19.4032469071
  C         2.9261140751       10.1200334810       18.5141527264
  C        -0.4797179774        9.6316974914       27.9856744197
  C        -0.7261070436       10.8870111124       28.7893427511
  S        -0.8942066246       13.5004725419       28.7757602981
  H         5.5404015821       15.3457394575       22.4235931592
  H         4.2148867212       14.6457889992       21.8251295365
  C         5.9685708801       13.3037885303       21.7746858973
  N         2.0994101754        6.9536883663       20.3593605109
  C         2.7221091642        7.3881912076       18.1489473995
  C         3.3180912500        9.5770112720       17.3093817591
  H         3.0120613355       11.1803677908       18.5546338125
  C         0.6998942946        8.8411164576       28.5587123989
  C        -1.7190126105        8.7536888968       27.5893296008
  C        -1.2091861368       11.2316508763       30.0458312945
  C        -1.2660532532       12.6066223008       30.2563209200
  H         6.9053692223       13.7602523263       21.3965965450
  H         6.3337921166       12.4806012733       22.3184357198
  C         5.2547919277       12.6653599123       20.6117559811
  S         2.3795098598        5.5102863323       19.6796075022
  N         2.5333057622        5.9920515026       18.1174252220
  C         2.9893448253        8.1515929331       17.0242077115
  H         3.5371223192       10.3190616472       16.5268994089
  H         1.0024749158        7.9209987212       28.0218194459
  H         0.2660709363        8.2676107710       29.3948372020
  C         1.9133838354        9.6174823289       29.0499287737
  H        -1.5041780717        7.9820065932       26.8683231257
  H        -2.1422614194        8.2577566799       28.4695565839
  C        -2.9122110664        9.6683000806       27.3147951233
  H        -1.2602097922       10.5169677126       30.8508450473
  C        -1.5649273653       13.2790529239       31.5355111152
  H         4.1517061045       12.6503219360       20.7059207304
  H         5.4450911558       11.6476918969       20.3957596373
  C         5.5957411361       13.2895700702       19.2614059783
  C         3.1524355842        7.4943540369       15.7959108363
  H         2.2692620478       10.0140254421       28.1573527198
  H         1.5878994390       10.4458972919       29.7470798509
  C         3.0507998012        8.7490242540       29.6337785086
  H        -2.8073299208       10.3559027685       26.4415469170
  H        -3.1811739638       10.3476094755       28.1462997881
  C        -4.1778508933        8.9013495215       27.0190237506
  C        -1.5716942513       14.6951458259       31.6774714706
  C        -1.8671666255       12.4635239141       32.7031174728
  H         4.7665437416       13.1485586583       18.5517904212
  H         5.6688236439       14.2905514816       19.3322913193
  C         6.9082710102       12.7202967452       18.6759097240
  H         3.1844487729        6.4232343565       15.8114785570
  C         3.5246901563        7.9811009476       14.5286505768
  H         3.5941508111        8.1214197652       28.9649255720
  H         2.6550237601        8.0871609705       30.3649681530
  C         4.0972105727        9.6000840712       30.3703956159
  H        -4.0473887327        8.2563239140       26.2031814395
  H        -4.4322537595        8.2546264456       27.8837319337
  C        -5.2920779342        9.8646271135       26.6416095358
  N        -1.3417297752       15.6664032929       30.6697590342
  C        -2.0278534027       15.2706112372       32.8288431503
  C        -2.1618720438       13.0822096120       33.8876917452
  H        -1.8796845674       11.3816649838       32.6524933847
  H         7.6651538895       12.4602609775       19.4266219594
  H         6.7409342372       11.8205088605       18.1302479312
  H         7.3405952936       13.3988487149       17.9358143143
  S         3.8153866799        9.6300054716       13.9986624408
  C         3.6315131734        6.9801466526       13.4296987508
  H         4.0195027644       10.5844022900       29.9699429566
  H         3.6977874665        9.7212317434       31.4279164839
  C         5.5326695210        9.0110840089       30.3362926019
  H        -5.0274711298       10.5875939335       25.8373486601
  H        -5.5383698862       10.5202954967       27.4580988002
  C        -6.5909727175        9.2531374450       26.0734250254
  S        -1.7823047891       17.1295865255       31.2631563744
  N        -2.1086110948       16.6175818264       32.7810996386
  C        -2.2466927428       14.5358379470       33.9706818434
  H        -2.2661860837       12.5445943658       34.8252513689
  C         4.0943876208        8.9365535390       12.3806624818
  N         4.0422810159        7.6156253883       12.2982607776
  O         3.5905162552        5.7757156525       13.5960454167
  H         6.0796701755        9.8171394021       30.9335756706
  H         5.9744610476        9.0415506584       29.3755659592
  C         5.6719322018        7.5974647551       30.9611322535
  H        -6.4788661920        8.5214634296       25.3266039599
  H        -7.0624178979        8.6240880000       26.8127413100
  C        -7.4740976673       10.3529270891       25.4941097898
  C        -2.5255527845       15.2583829886       35.1728041643
  S         4.4756749473        9.9399535153       10.9864710279
  C         4.1852495526        6.8822028255       11.0475248850
  H         6.1947746765        7.5387636901       31.9466286619
  H         4.7253916222        7.2176936518       31.2161286199
  C         6.4725991904        6.6835083333       30.0425111518
  H        -6.9984585886       10.7337874758       24.5489812741
  H        -7.5577693545       11.2805715165       26.1048001004
  C        -8.7909765879        9.7355182466       25.1402135819
  H        -2.2972959482       16.2673869223       35.1177686834
  C        -3.1542591509       14.9579999336       36.3600414908
  H         4.8170606812        7.4082296847       10.3234030974
  H         4.5135524312        5.8672331041       11.0850758770
  C         2.7662837108        7.0408743163       10.3785473655
  H         7.5378187113        6.9767529724       30.2690001573
  H         6.1659012961        6.7890718427       28.9562969906
  C         6.4088501350        5.2925062002       30.5853665765
  H        -9.2436598774       10.3066143709       24.3597056120
  H        -8.7118880045        8.6704256590       24.8717047482
  C        -9.8058529356        9.9255797872       26.2865643478
  S        -3.7850165532       13.4033893986       36.8449121919
  C        -3.2198553240       16.0584761656       37.3816263019
  H         2.4176991548        6.1892558845        9.7647572610
  H         1.9085150318        7.2413695649       11.1007074562
  H         2.9140568136        7.9397994942        9.7685157938
  H         7.4339049574        4.9143469818       30.7774627604
  H         5.9831780674        4.5557439820       29.9052217978
  H         5.7664693297        5.2896193454       31.4780884135
  H       -10.7941303953        9.6955957199       25.8505580918
  H        -9.9398049372       10.9337651177       26.7259220119
  H        -9.5153801528        9.3076757497       27.1165285503
  C        -3.9751942458       14.2051660530       38.4124244330
  N        -3.7920698599       15.5968834167       38.4806520451
  O        -2.8999281146       17.2629950218       37.1885469100
  S        -4.5742800650       13.4514508535       39.9099100833
  C        -3.9635595943       16.3925468814       39.6692966898
  H        -4.0367835373       17.4582366255       39.3699822628
  H        -4.8682357885       16.2458944214       40.2344159707
  C        -2.7791662652       16.3606195802       40.6761821740
  H        -2.8968534305       17.0975485104       41.4688048620
  H        -2.6252377048       15.4278684646       41.1226314097
  H        -1.8443619594       16.5359319317       40.1064039473
