352
i=
  H         4.5798869696        1.3767670286       12.2928910070
  C         4.0404557887        2.3320549580       12.4650740567
  H         4.7849417869        3.1632936183       12.5503465492
  C         3.1135788604        2.5875056463       11.3023451705
  C         3.2340073245        2.3411000975       13.7860548910
  C         3.7776676725        2.9148952610        9.9073409219
  H         2.5874841878        3.4165575934       11.5465692667
  H         2.3303240242        1.8080023865       11.2016860759
  H         2.4768758832        3.1060952770       13.9440004110
  H         3.9699337561        2.3354964294       14.6058277480
  H         2.7064308862        1.3622509251       13.8396519851
  C         4.3586685592        1.5895042557        9.4077037997
  H         2.9314684465        3.1488955031        9.2078549682
  H         4.4298103329        3.7127861297        9.9284669641
  C         5.4488647380        1.8059085707        8.3396654888
  H         3.4755444253        1.0592111687        8.9483761105
  H         4.6083073828        0.9024986798       10.2077971327
  C         6.6458767005        2.7014943697        8.7891922943
  H         4.9911471724        2.2750842025        7.4643003715
  H         5.7060988168        0.7941948673        7.9587548827
  C         7.8715498593        1.9679929168        9.1546501058
  H         6.9139843334        3.3349017426        7.9730572216
  H         6.4204519209        3.4293491092        9.5632483828
  C         9.1643037417        2.7791515544        9.3920542632
  H         8.0627715513        1.2803133512        8.3317676422
  H         7.5055045879        1.3732448144       10.0182631003
  C         8.8207741030        4.1095895389       10.0288321068
  C         9.6289077534        3.4867411997        8.1882644016
  C        10.2948076360        1.9888778411       10.0974087356
  C         9.0344215293        5.2526013186        9.2466883480
  C         8.2429573861        4.4880100721       11.2886056141
  C         9.5955378240        4.8332807626        8.0447215012
  C        10.1543094810        2.8198891957        7.0066746766
  H         9.7754034596        1.2957509223       10.7839413002
  H        10.7899956883        1.3320937257        9.3463473123
  C        11.3407938974        2.7628571490       10.8710440887
  S         8.6673476126        6.7442034290       10.0492723144
  C         8.1604412245        5.8550720010       11.4439028983
  H         7.9725708022        3.6968976603       12.0242461173
  C         9.9679064849        5.4649147984        6.9214361642
  H        10.0104077353        1.7240298537        6.9619323544
  C        10.5004192751        3.4758047263        5.8528484852
  H        10.8573958008        3.2630883251       11.7243286190
  H        11.7433409772        3.4801029948       10.2107595900
  C        12.6252438589        1.9464850012       11.2259846441
  C         7.6393094061        6.5629062230       12.6515242191
  C        10.3739867724        4.8068448140        5.7538880200
  H         9.9042440804        6.5525734118        6.8569113641
  C        10.8667664203        3.0777560347        4.6165656749
  H        13.4825493928        2.1836028104       10.6060673841
  H        12.4293881149        0.9068736767       10.9560678478
  C        13.1337834397        2.1362132822       12.5527724847
  C         7.6271948384        7.9890571500       12.9157022811
  C         7.2520862555        5.7463645453       13.8444759522
  C        10.6866078158        5.5208572367        4.5197839375
  C        11.0101940870        4.1837487086        3.7901227506
  S        11.0181695945        1.5724562946        3.8551964915
  H        14.0928956337        1.7341120720       12.6914010146
  H        13.4195258552        3.1586699931       12.8405411819
  C        12.1506609461        1.6273870697       13.6030419159
  N         7.8776784285        9.0104690400       11.9916364951
  C         7.3450912852        8.5474297887       14.1915085710
  C         6.9257153903        6.2955928869       15.0589294570
  H         7.2284508678        4.6625059724       13.7335244624
  C        12.0049157342        6.3806465961        4.8150398178
  C         9.5681419509        6.3476296817        3.7697044230
  C        11.3833928865        3.7426948097        2.5006691169
  C        11.3542562452        2.4108784334        2.3724046363
  H        12.4855362925        0.5882305807       13.8361540025
  H        11.0983045759        1.6217805102       13.2172738086
  C        12.1429544592        2.3546298027       15.0022929582
  S         7.9164344153       10.4367590639       12.6954273660
  N         7.4121939196        9.9642327991       14.1422474459
  C         6.9682381656        7.7931349124       15.3037267070
  H         6.5863876634        5.6050141105       15.8496829343
  H        11.7882080822        7.1729903731        5.4886528824
  H        12.4134821146        6.8071556902        3.9087324458
  C        13.1278671011        5.4955863789        5.3606960797
  H         9.0402961918        6.9491525021        4.5407335673
  H         9.9699431096        7.0422472113        3.0372173241
  C         8.4547519951        5.5206010967        3.1261654162
  H        11.4836378313        4.4527443016        1.7452939080
  C        11.6850454721        1.6735636247        1.0770581321
  H        12.0681692644        3.3845359337       14.9067876667
  H        11.2007163491        2.1496455744       15.5110910174
  C        13.2104829693        1.9030741347       16.0211747125
  C         6.6476998942        8.4755150517       16.5100849155
  H        12.9563556233        5.1210136048        6.3242151849
  H        13.2412209818        4.7441613718        4.5936463853
  C        14.3518116302        6.3523969268        5.4551286227
  H         7.8550789898        4.8790988695        3.8269820734
  H         8.7400634883        4.9526360905        2.2438565220
  C         7.3814563073        6.4985938113        2.5342477726
  C        11.7504612406        0.2739772651        0.9043714623
  C        12.1518764496        2.4859979595       -0.0658643002
  H        14.2153085097        2.2193740394       15.7948446723
  H        13.2577987800        0.8548969803       15.8582948576
  C        12.7244151195        2.2141247031       17.3832478733
  H         6.9319724027        9.4904458366       16.4190642853
  C         6.2464238216        7.9824562454       17.7564885008
  H        14.0666130242        7.0957984748        6.1790590476
  H        14.4845326977        6.8754670507        4.4893650756
  C        15.6051569508        5.5853154858        5.9567601599
  H         7.0370955337        7.2209451021        3.3041679626
  H         7.8931844604        7.0002535955        1.7635840386
  C         6.0926301583        5.8543495910        1.9750417587
  N        11.4834758515       -0.6809768654        1.9265964173
  C        12.1204294165       -0.3230566939       -0.3035531798
  C        12.5402325845        1.8585899254       -1.2684830064
  H        12.0661071840        3.5412949670        0.0159855164
  H        11.7584307954        1.6998853857       17.7207046190
  H        12.4679817360        3.2686307746       17.3726441822
  H        13.4629924331        2.0803906111       18.1250424370
  S         5.9996230204        6.2830462058       18.1655644763
  C         6.1442786975        8.9384084570       18.8383895821
  H        15.3407312389        5.0159875403        6.8547356362
  H        15.7701049630        4.8096322947        5.1493938732
  C        16.8250915850        6.2977645461        6.3686318122
  H         5.8849647324        4.9502307439        2.5689356448
  H         6.3717436010        5.4423236109        1.0813518785
  C         4.8472076428        6.7797295101        1.8577787757
  S        11.6372119058       -2.1988542736        1.3059991828
  N        12.1139748182       -1.6864204535       -0.1902785329
  C        12.5268122316        0.3941040493       -1.4025967386
  H        12.8427293102        2.4718581046       -2.1400804262
  C         5.8161205252        6.9322998951       19.7820274772
  N         5.7451679786        8.2731346391       19.9007960360
  O         6.4597785028       10.1321423428       18.7840824226
  H        17.3432511402        6.7206935215        5.5588271636
  H        16.5297013217        7.1314391390        6.9331989867
  C        17.7307065766        5.4897655424        7.2740682372
  H         3.9022717520        6.1688906729        1.8962915274
  H         4.8089135697        7.5340471695        2.6514359892
  C         4.8211913568        7.3508951172        0.4404978825
  C        12.8699929534       -0.2639616774       -2.6048577870
  S         5.6331832622        5.8669389540       21.1325964866
  C         5.7801436961        8.9949106544       21.1090907758
  H        17.2065443321        5.1007850750        8.1888226184
  H        17.9547403668        4.5729085883        6.6676989115
  C        19.0222692620        6.1772646666        7.7343344131
  H         4.5325393064        6.6055915858       -0.3019083921
  H         5.8104542802        7.5634194747        0.1639007076
  C         3.9841701160        8.6137937140        0.2057331238
  H        12.7999390994       -1.3176084896       -2.4490607899
  C        13.3724358769        0.1339646968       -3.8309288362
  H         4.9994033654        8.6550685821       21.7951572914
  H         5.4329734158       10.0084624789       20.8468328082
  C         7.1601770151        9.2237107291       21.7611100116
  H        19.3483596503        5.7481374930        8.7002745294
  H        18.7622793092        7.1603600800        7.9805190573
  C        20.0823088048        6.0763318283        6.7155562110
  H         3.7689089759        8.5623308137       -0.8443132788
  H         2.9636558900        8.4288924061        0.6273847620
  C         4.5721030028        9.9653184698        0.7207680808
  S        14.0914209552        1.6462594049       -4.3358630484
  C        13.5113653757       -0.9350532478       -4.8433400719
  H         7.6770349584        8.5024629025       22.3548534080
  H         7.0986486275        9.9965406975       22.5422021254
  H         7.9217203221        9.5617775626       21.0607826989
  H        20.5881191967        5.1091637797        6.7444004000
  H        19.5651165174        6.2443913805        5.7936867786
  H        20.8284254985        6.8038849205        6.9457241557
  H         5.4028780001        9.8904011477        1.4106529025
  H         4.9353718469       10.6235499980       -0.1008168153
  H         3.8309421573       10.5446036181        1.2798841106
  C        14.4058024033        0.8895705689       -5.8482593524
  N        14.1938293778       -0.4146405269       -5.9514729454
  O        13.1583258468       -2.0906417636       -4.5846244650
  S        15.1521190782        1.6124417931       -7.2081449274
  C        14.1581537778       -1.1620855672       -7.1885686453
  H        14.0765192472       -2.1960103525       -7.0323642910
  H        14.9730042842       -0.8985463129       -7.8796019289
  C        12.8854513096       -0.8957147923       -7.9882681884
  H        12.4546963560        0.0746359459       -7.8892241800
  H        12.1280357697       -1.5618321740       -7.5079490860
  H        12.9952575234       -1.2369711308       -8.9844927937
  H        -1.0502390660       14.3738784782       15.8724297875
  C        -1.9901467573       13.9924938672       16.2927563191
  H        -2.4436905343       14.9182464557       16.5197804619
  C        -1.7047318692       13.2365939558       17.6327466773
  C        -2.8241319000       13.1247213420       15.3199431104
  C        -2.4505157115       13.8588055899       18.7231099716
  H        -1.9555667789       12.1789330293       17.5527824393
  H        -0.7101271684       13.3288825171       17.9416486452
  H        -3.0481844272       13.5654246419       14.3728235754
  H        -2.2741222155       12.2254855263       15.1052351914
  H        -3.7390572940       12.8572149014       15.8830864300
  C        -2.6234389894       12.7738292209       19.8195841232
  H        -3.4632168622       14.2025780822       18.3731765163
  H        -1.8733487336       14.7028663910       19.0197695875
  C        -3.0464195204       13.0612485233       21.1843568871
  H        -3.4367033814       12.0971969646       19.4352054331
  H        -1.8554812941       12.0721219179       19.9802924096
  C        -2.1062485053       12.5545649268       22.2464713251
  H        -3.8952160725       12.4455000825       21.3403923082
  H        -3.3868593831       14.0393617616       21.4398714636
  C        -0.8244800266       13.4980016567       22.2328396028
  H        -2.5935043967       12.4553150532       23.1976270546
  H        -1.8255663326       11.5458932409       22.0084091674
  C         0.3742494282       12.8855691903       23.0005846643
  H        -0.5155235449       13.8612852504       21.2101404097
  H        -1.1071019400       14.4195719766       22.7884813316
  C         0.9509840484       11.5862267919       22.4398949263
  C         0.1361608744       12.1561988329       24.3122847640
  C         1.5180090600       13.9305487910       23.0467415543
  C         0.8539038084       10.4814933015       23.2881103358
  C         1.4833444478       11.1841649337       21.1420205567
  C         0.3536175308       10.8209123086       24.4861878088
  C        -0.3034248093       12.8183918358       25.4595441752
  H         1.8021400580       14.1631266097       22.0266480627
  H         1.0952596016       14.8024703838       23.4794344197
  C         2.7797019334       13.4620695704       23.8402100691
  S         1.4345188371        8.9875554308       22.6176969661
  C         1.8393200903        9.8643090479       21.1532333054
  H         1.6032944794       12.0393557692       20.3956170559
  C         0.1086322112       10.1715759221       25.6626539698
  H        -0.5859042318       13.8350761886       25.3660754932
  C        -0.4841755419       12.2583971472       26.6868921927
  H         3.2396424339       12.6801682290       23.2392687210
  H         2.4963538114       12.8874613812       24.7109783128
  C         3.9531266868       14.4917085942       24.0993571696
  C         2.2614815851        9.1354243395       19.9597220252
  C        -0.3162760104       10.8595873803       26.8111350873
  H         0.3988321608        9.1241112882       25.8426951143
  C        -0.7942877883       12.7240519220       27.9262279175
  H         4.6111460302       14.0781992287       24.8977746227
  H         3.5592922968       15.3447092542       24.5899935254
  C         4.7548415012       14.8744360891       22.8235491663
  C         2.3959264910        7.7279616595       19.7907770896
  C         2.6860520416        9.9725855967       18.7797724195
  C        -0.5907040423       10.2777805826       28.2054549891
  C        -0.9468153348       11.6626268376       28.8054553947
  S        -1.0697737881       14.2450293371       28.7106562040
  H         5.2947923095       15.8057680316       22.7840711864
  H         3.8958447629       14.9573352175       22.1445478843
  C         5.6809161623       13.7684913917       22.3070031878
  N         2.0628640300        6.8200420080       20.7450032518
  C         2.6749895361        7.2143776980       18.5618678441
  C         3.0033135983        9.3894375143       17.5908436449
  H         2.6713282566       11.0303528904       18.8032140927
  C         0.5491576919        9.5986916591       28.9899420595
  C        -1.8899370054        9.3699870437       28.1297001348
  C        -1.2685741094       12.1088580174       30.0559050387
  C        -1.2458476678       13.4696162641       30.1810196815
  H         6.7145275063       13.8319894375       22.6991172102
  H         5.2266688767       12.8286972439       22.6822187811
  C         5.6550668923       13.6973832540       20.7703646089
  S         2.1436349110        5.3652936532       20.0484715484
  N         2.4763666128        5.8618853310       18.5785014796
  C         3.0083583454        7.9086945113       17.4211640878
  H         3.4126831701        9.9541727162       16.7814432717
  H         0.9693821312        8.8621686601       28.3111838746
  H         0.2356909604        8.7665494798       29.7018811202
  C         1.8209215862       10.3451878085       29.4161253142
  H        -1.7089574653        8.5040508766       27.4203181821
  H        -2.0191188496        8.9563224402       29.0868985920
  C        -3.1425804928       10.1422559506       27.8161510063
  H        -1.4913273161       11.4295695356       30.9325106850
  C        -1.6097335050       14.2296367425       31.3982989472
  H         5.2172144282       14.6360251770       20.4165011170
  H         4.9163898021       12.8908989095       20.5454144156
  C         7.0474779298       13.4458063911       20.1920867899
  C         3.3697486919        7.2041922109       16.2478002167
  H         2.1126973846       11.1862268044       28.7778939994
  H         1.6687334353       10.8210813168       30.3835725088
  C         3.1015388697        9.5326201782       29.5596322216
  H        -3.1283059625       10.8887737358       27.0636803972
  H        -3.4214877602       10.5917080199       28.7346831409
  C        -4.3795183766        9.3098061501       27.3579586040
  C        -1.6908639771       15.6655195507       31.5805432995
  C        -1.9802942808       13.5150628701       32.6769098355
  H         7.7499491910       14.0444612279       20.7440005234
  H         7.4887864632       12.4161863951       20.1676161798
  C         7.0243875565       13.8871593068       18.7410786192
  H         3.4427702123        6.1589054309       16.3510495322
  C         3.7439542805        7.6302924286       14.9703350361
  H         3.2264801795        8.8752289941       28.6820015582
  H         2.9053128977        8.8849758705       30.4302343488
  C         4.3625127506       10.2906199165       29.8692838923
  H        -4.1230830582        8.4924418561       26.6964422671
  H        -4.9144300914        8.8912475483       28.1951740409
  C        -5.4198550219       10.2037513537       26.6925935276
  N        -1.5462297335       16.5734329979       30.5472531729
  C        -1.9195197211       16.2789772093       32.8122076981
  C        -2.2492206532       14.1539352737       33.8924857960
  H        -2.0416224040       12.4428602497       32.6214955198
  H         7.9648431757       13.9064124493       18.3139460566
  H         6.4710032222       13.1047937678       18.2878366832
  H         6.4763702823       14.8701679263       18.6621600083
  S         4.0115665877        9.2220253116       14.4556026086
  C         3.7550316532        6.6258606856       13.8938302712
  H         4.6518237573       11.0356797076       29.1238507927
  H         4.2365828791       10.9084493315       30.8123386564
  C         5.6443650303        9.2971806215       30.0247949146
  H        -4.8392752339       10.7709377587       25.9603796820
  H        -5.7383641241       10.8812408378       27.4779494793
  C        -6.5875864368        9.5445316613       26.1175555737
  S        -1.4586551399       18.0601345808       31.2096706310
  N        -1.7834598960       17.7063607879       32.7695927164
  C        -2.2608222721       15.6077764808       33.9955689826
  H        -2.4425753561       13.5786616558       34.7587137891
  C         4.2817673880        8.5556807991       12.8446395259
  N         4.2200864395        7.2089220767       12.7659391107
  O         3.6636334306        5.3977373262       14.1296437905
  H         6.5496728463        9.8544424790       30.2423136848
  H         5.7644567297        8.7905122585       29.0489256422
  C         5.4126221847        8.1608171260       31.0605054979
  H        -6.3216380127        8.6685190086       25.5121383084
  H        -7.2291799351        9.1578428705       26.9133237263
  C        -7.2884985241       10.5386487833       25.2089352884
  C        -2.5881803471       16.3933373683       35.1383629208
  S         4.5754733145        9.5551772164       11.4199892235
  C         4.3044171841        6.4516892443       11.5230907712
  H         5.1980355382        8.5771198982       32.0356714414
  H         4.6543794887        7.5215169883       30.7561384449
  C         6.5318693193        7.1071705618       31.1557401370
  H        -6.6028276976       10.8479948918       24.4479297729
  H        -7.5256380901       11.3986584252       25.8756926921
  C        -8.5326175441        9.8731233103       24.5526947055
  H        -2.1840421584       17.4121445674       35.1701280514
  C        -3.0609466757       16.1281408083       36.3470392616
  H         5.2355986951        6.7077228294       10.9755224041
  H         4.5056650433        5.4133344282       11.7975578843
  C         3.1169753008        6.6614192114       10.5770595795
  H         7.4419676460        7.6049439621       31.5239136572
  H         6.5444227746        6.6504530742       30.1717606783
  C         6.1629589967        5.9808993604       32.1382135747
  H        -8.9070563365       10.4367527939       23.6523561828
  H        -8.2496303991        8.9139428571       24.1266762722
  C        -9.7597810612        9.7279361177       25.4587625377
  S        -3.5404283297       14.5571007785       36.8616255684
  C        -3.1381218991       17.2728876647       37.3631510397
  H         3.2315186025        7.6387668491       10.1425625043
  H         3.0657020758        5.9599858934        9.8007273767
  H         2.2186614941        6.5623098987       11.1637734377
  H         6.9777112835        5.3168260706       32.4536407231
  H         5.2895755766        5.3990904793       31.8769193107
  H         5.8719642263        6.4411390772       33.0316823380
  H       -10.6801595628        9.4143877418       24.9287308609
  H        -9.9874558987       10.6787469130       25.9732211962
  H        -9.5372093637        9.0269503635       26.2901608510
  C        -3.9393540408       15.3341541310       38.3927874320
  N        -3.7041821615       16.6893968486       38.4278743388
  O        -2.8017487827       18.5008140785       37.2326010696
  S        -4.8078616714       14.5186377552       39.6861165481
  C        -3.9875050858       17.5326493009       39.5482049109
  H        -4.3888031689       18.4924491243       39.1133011157
  H        -4.8419608394       17.0971372291       40.1280080711
  C        -2.7409809010       17.7071671148       40.4794516302
  H        -1.8984159728       18.0198312077       39.9180746224
  H        -2.8397850470       18.5264984816       41.1468553198
  H        -2.5139599450       16.8582644864       41.1206306441
