352
i=
  H         4.5082131524        1.6764454540       13.6860159575
  C         3.8650964444        2.5492556709       13.5821577008
  H         4.4031548196        3.4362074442       13.4582478176
  C         3.0484756342        2.2754335890       12.3003564381
  C         3.0247975682        2.7621840878       14.8043391006
  C         3.8712008670        2.6210637019       11.0082362029
  H         2.2029311149        2.9288026545       12.3404871830
  H         2.7850661427        1.2068342727       12.2637414206
  H         3.7480290729        3.2882584902       15.5196801104
  H         2.5731134566        1.8193188155       15.2397272051
  H         2.2763133677        3.4346475785       14.4996341162
  C         4.7694743478        1.5790868956       10.3696665070
  H         3.0879901311        2.8831417323       10.2232677601
  H         4.4734469697        3.4610340353       11.2731059315
  C         5.3160894386        1.9360993276        8.8997147675
  H         4.1580029207        0.6721897617       10.3461862624
  H         5.6049836862        1.4244885142       11.0275159661
  C         6.5172752977        2.8456287154        9.0770340353
  H         4.4690850705        2.4364981699        8.4715510972
  H         5.5768134408        1.1124340506        8.2333210765
  C         7.7688263546        1.9798535849        9.3030413931
  H         6.7177575055        3.4228084854        8.1182571122
  H         6.2546028182        3.6068054139        9.8093303633
  C         9.0235637492        2.7462074104        9.1658120693
  H         7.7733956519        1.0998913759        8.7296557944
  H         7.6555843923        1.6078240865       10.3329324342
  C         8.8040591876        4.1658183959        9.8678704643
  C         9.3873913805        3.4943959784        7.8773582476
  C        10.1916983501        2.0012016347        9.8619934643
  C         9.0029147524        5.2485019485        9.0218069247
  C         8.3857967738        4.5173530229       11.1628436340
  C         9.4642253278        4.8402072302        7.7950124674
  C         9.7550652117        2.8881514650        6.6734438547
  H        10.1447095992        1.5257346195       10.8415273698
  H        10.3013690545        1.2009617688        9.1523354673
  C        11.4314765480        2.9312039590       10.0312868850
  S         8.3973708141        6.6746300593        9.7449276564
  C         8.1968210379        5.8800412755       11.2260892446
  H         8.1455421316        3.7575805128       11.8951482801
  C         9.7952000113        5.5030550573        6.6351015742
  H         9.6469072509        1.8113668675        6.5717573633
  C        10.2278943803        3.5352324446        5.6038351771
  H        11.1897777655        3.9704435467       10.3534005543
  H        12.1121188666        3.0093599911        9.1900829390
  C        12.3307774842        2.4292746184       11.1870349947
  C         7.6449316154        6.5547819496       12.4644580936
  C        10.2460631790        4.8938242983        5.4733323115
  H         9.4362515776        6.5411954199        6.7433989294
  C        10.6820518661        3.1580258852        4.3643353681
  H        13.2702679794        2.8846331845       11.0365192931
  H        12.6204083436        1.3114396403       11.1616180149
  C        11.8601362337        2.8320030155       12.5911176782
  C         7.6588989735        7.9430784010       12.7504783494
  C         7.2679024342        5.7295068847       13.5938928712
  C        10.7143242461        5.5463573347        4.2340215263
  C        10.9968330137        4.2597962348        3.5687509453
  S        10.9772265291        1.6773458136        3.6227457925
  H        12.2440474068        3.8573775822       12.9706130702
  H        10.7489288394        2.9089782603       12.5249769553
  C        12.2353862138        1.7815865832       13.6938621219
  N         7.9243063667        8.9697832030       11.8158368301
  C         7.4064800307        8.4682040697       14.0327665747
  C         6.8525426900        6.2516849649       14.8318555074
  H         7.2232684262        4.6808654403       13.4681927240
  C        11.9791362219        6.4611081033        4.5365755475
  C         9.5685174974        6.2898206029        3.4732775021
  C        11.4494881002        3.8778004790        2.2917122908
  C        11.3871533056        2.5182028536        2.1470556950
  H        12.9655409591        1.0382028372       13.3393879312
  H        11.4202694911        1.1266127018       13.9466506147
  C        12.7723646552        2.3257091947       15.0212596091
  S         8.0835540607       10.4051386350       12.5957884493
  N         7.6295965494        9.8344649265       14.0862510612
  C         7.1741445666        7.6597229137       15.1476058808
  H         6.5597474629        5.5622351845       15.6020076974
  H        11.7105085843        7.3296703495        5.0884958590
  H        12.3199524106        6.9059067401        3.5929645729
  C        13.1623124922        5.6610524485        5.1477752622
  H         8.9400250396        6.7581232461        4.2531563571
  H         9.9428764291        7.1369350714        2.8448398342
  C         8.5434227301        5.4025931548        2.6536743241
  H        11.6145367020        4.6725689873        1.5079680032
  C        11.6631649971        1.7435029914        0.9453717557
  H        13.8074065374        2.6749679782       14.8708705113
  H        12.2276370026        3.2318537060       15.2273338507
  C        12.6725905753        1.2777124056       16.1603894391
  C         6.9546747466        8.2580803999       16.4395033708
  H        12.9181921034        5.2265820639        6.1190272038
  H        13.3978056920        4.8996199475        4.4474725547
  C        14.4045135595        6.4156547251        5.3762911982
  H         8.2636004106        4.5656636858        3.2511921847
  H         8.9706567153        5.0600064506        1.6613708171
  C         7.2782902627        6.2181589851        2.4404796408
  C        11.6154620839        0.3018016413        0.8357419593
  C        11.8057117424        2.4629571869       -0.2727895136
  H        13.4899744920        0.5587406408       16.1086846122
  H        11.7324987564        0.7523125161       16.1579231824
  C        12.7199370894        2.0058564080       17.4583145068
  H         7.1057552813        9.3437114800       16.4453225641
  C         6.5363021087        7.7969753586       17.6456005619
  H        14.1243220185        7.1840650772        6.0084486513
  H        14.7774883813        6.9044218632        4.4727366457
  C        15.4576331596        5.3955263259        5.9865012485
  H         6.9400267163        6.6223446319        3.3806134431
  H         7.5393253222        7.1278883579        1.9011872969
  C         6.1354620642        5.4593073826        1.7628584536
  N        11.5767379297       -0.5845185319        1.8812302932
  C        11.8538357992       -0.3450464787       -0.3212380837
  C        12.0847949041        1.7560563332       -1.4736246568
  H        11.9270873881        3.5385530688       -0.2188203261
  H        11.7155008553        2.3718122749       17.6009552400
  H        13.3560614809        2.8636760631       17.2873366133
  H        13.0736202248        1.2739294842       18.2547584395
  S         6.0882578707        6.2251179989       18.0365044664
  C         6.6317661103        8.6702897830       18.8268751976
  H        15.0775282009        4.8928574317        6.8729919270
  H        15.6204114152        4.5750589172        5.2609708800
  C        16.8089574997        6.1169440686        6.1715914889
  H         5.4503018580        5.1137775561        2.5694888146
  H         6.4999419970        4.6592319125        1.0925309701
  C         5.2596339372        6.3403505208        0.9210800659
  S        11.5321844409       -2.0519213615        1.3439230216
  N        11.7482535831       -1.7760714050       -0.2199144089
  C        12.1316064324        0.2913144635       -1.5350040284
  H        12.3018262245        2.3263380890       -2.3531405908
  C         5.8477340065        6.7532820305       19.7048865863
  N         6.0773465222        8.1194702259       19.9014281159
  O         6.9700202629        9.8658426697       18.7518995064
  H        17.1838687180        6.4719200383        5.2127838381
  H        16.7132071297        7.0362151257        6.6596926064
  C        17.8453044433        5.1460026740        6.7609282809
  H         5.8557268518        6.6414872473        0.0380726689
  H         4.4553867269        5.7142962680        0.6282813602
  C         4.7862886556        7.6348612218        1.7057407152
  C        12.4509723081       -0.5085507592       -2.6701389494
  S         5.3591366451        5.7855967244       21.1158514398
  C         5.9785041967        8.8425094669       21.1887567115
  H        17.3192259990        4.5499116546        7.4565356082
  H        18.3155818924        4.4877726344        5.9904331481
  C        18.9680067826        5.8819958658        7.5637641227
  H         5.6123823533        8.2713521510        1.9317569896
  H         4.3429110393        7.3702068767        2.6616129644
  C         3.8177606685        8.4521170393        0.9571374029
  H        12.2034113789       -1.5783721928       -2.5031432602
  C        13.0681823708       -0.1430754756       -3.8680601432
  H         5.4053317144        8.2581143625       21.9309653440
  H         5.4515192701        9.8148777858       21.0474189702
  C         7.3020041298        9.1334990753       21.8551810811
  H        19.3716125075        5.2005180973        8.3086117182
  H        18.6928061526        6.7623401772        8.1976080487
  C        20.1347921978        6.2229714313        6.5511581571
  H         4.0585304744        8.3478397693       -0.1030932694
  H         2.8766213807        7.9840423342        1.1860259319
  C         3.6618027878        9.9279936135        1.3395286708
  S        13.5494108127        1.3615749016       -4.4817266887
  C        13.1488536760       -1.2399611224       -4.8477093674
  H         8.0558662079        9.6948128950       21.1981544582
  H         7.7881201786        8.2127985280       22.1016414314
  H         7.0489706555        9.6369968626       22.7814195685
  H        20.9245482379        6.7496600078        7.1114923792
  H        20.4935833617        5.2159111223        6.2130359825
  H        19.7546969170        6.7686807433        5.6804394229
  H         2.9866794527       10.2192019011        2.2517752340
  H         4.5928619905       10.4205824118        1.5802653039
  H         3.2492655795       10.4007706408        0.4496807739
  C        13.9116977059        0.5093840914       -6.0490269043
  N        13.7161198030       -0.7927775051       -6.0172128896
  O        12.7017090927       -2.3599985335       -4.6423882373
  S        14.2084071575        1.2779962477       -7.6482741792
  C        13.8528353253       -1.6750604481       -7.1437625455
  H        13.9087051176       -2.6716095238       -6.7805250982
  H        14.7084744361       -1.5569487928       -7.7170358360
  C        12.6590606795       -1.6167619171       -8.0900488326
  H        11.6659207172       -1.8057656278       -7.6544113537
  H        12.7678682532       -2.3696918126       -8.9160898827
  H        12.4710192106       -0.6665189821       -8.5296578962
  H        -1.7040979916       14.9626272855       17.3582322373
  C        -2.6714708631       14.7281114739       17.0049456983
  H        -3.0919588220       15.6951425032       16.8559599539
  C        -3.3995099094       13.8191604457       17.9275782728
  C        -2.7160232770       14.0888736794       15.6304658603
  C        -2.6468638677       12.6624671050       18.5247324408
  H        -3.5498059845       14.4895953866       18.7520016900
  H        -4.3652270540       13.5030612543       17.4969373654
  H        -1.6696498669       13.7875418585       15.5235558317
  H        -3.3846113691       13.1984172286       15.5890018192
  H        -2.7876634536       14.7551601634       14.8195753412
  C        -1.5930972529       13.0507913029       19.5735622069
  H        -2.0913417174       12.3113623783       17.6938702014
  H        -3.4151830586       12.0109440238       18.8768371847
  C        -2.2373450392       13.1023928350       20.9221982394
  H        -0.8639148479       12.2969334711       19.5000477349
  H        -1.1839402587       13.9829924924       19.4526414620
  C        -1.3316048755       12.6218015974       22.0706127270
  H        -3.2132525153       12.5950226220       20.8279421111
  H        -2.4722261537       14.1334127401       21.1415675656
  C        -0.0816124457       13.4859600475       22.2971334473
  H        -1.7852326839       12.5133195529       23.1267177074
  H        -1.1079136159       11.5333707711       21.8454153584
  C         1.0792188831       12.8514028918       23.0915640097
  H         0.2743481937       13.9217488983       21.4207891601
  H        -0.4087620562       14.3539174138       22.7685391508
  C         1.5240186662       11.5683628148       22.4951970622
  C         0.6666793667       12.1279721759       24.3605056078
  C         2.1733729477       13.8830384996       23.3847970236
  C         1.4239172884       10.4489618867       23.2886728287
  C         2.0641457666       11.2495740814       21.2120222437
  C         0.8865485140       10.7818429192       24.4971526666
  C         0.2633837473       12.6763325240       25.5394235883
  H         2.2975971989       14.4072516773       22.4170147503
  H         1.8508246226       14.6292935093       24.1133942274
  C         3.4888565230       13.3708692397       23.9911553706
  S         1.8955521978        8.9302752102       22.5379604679
  C         2.0778466604        9.8911232559       21.0339750053
  H         2.1672198337       12.0786359487       20.5200332287
  C         0.5523017945       10.1292453584       25.6251728561
  H         0.1764607007       13.7156417869       25.5156611597
  C        -0.1023029395       12.0548274800       26.6788840832
  H         3.7843294858       12.7377138062       23.1338450256
  H         3.3180817225       12.7024357710       24.7984733208
  C         4.5048088346       14.4805369104       24.2009029095
  C         2.4998271773        9.2067868482       19.7961691738
  C         0.0199141717       10.7093044639       26.7900283843
  H         0.7045903816        9.0979889393       25.4632896766
  C        -0.5062842241       12.4427594044       27.9199291858
  H         5.4093856899       14.1010933246       24.8851649010
  H         3.9458837374       15.2735219693       24.7695487657
  C         5.1660377063       15.0244594812       22.9845816142
  C         2.3771362672        7.8537275878       19.5109283787
  C         2.8748561025       10.0609449016       18.6359512883
  C        -0.4412762109        9.9824405432       28.0399503724
  C        -0.6765826412       11.3362005842       28.7320516901
  S        -0.8636596277       13.8979375454       28.6267738582
  H         5.8611441470       15.7526176549       23.2977328852
  H         4.4166028183       15.4786311862       22.3683085210
  C         5.9942423625       13.9904433077       22.2615093900
  N         2.1494325172        6.7820285202       20.3913573788
  C         2.7942627416        7.3149175894       18.2848937087
  C         3.2763744912        9.5169541744       17.3668155563
  H         3.1340423082       11.0772497796       18.8876205709
  C         0.7007597558        9.1815724437       28.7774120798
  C        -1.8076785178        9.2595286609       27.8950684055
  C        -1.2599625350       11.6971659671       29.9474218952
  C        -1.1969731435       13.0615058228       30.0372250625
  H         7.0193434153       14.3283238533       22.2556787474
  H         5.8870980966       13.1389448112       22.8980691584
  C         5.4173561080       13.8425950361       20.8271489884
  S         2.3385735522        5.3424382193       19.6866439746
  N         2.7428001128        5.9871057422       18.2985709992
  C         3.2126648744        8.0696471696       17.1708104991
  H         3.6066383934       10.1366278351       16.5124716789
  H         1.2410739860        8.7418416969       27.9656833506
  H         0.2031346090        8.4141926314       29.3628039732
  C         1.6866543167       10.0517343190       29.6243142076
  H        -1.5310119517        8.4949383469       27.1668727791
  H        -2.1519528278        8.6960002725       28.7826624830
  C        -3.0220481005       10.0643388258       27.4380078568
  H        -1.2924306810       11.0475177769       30.7538917483
  C        -1.5315507140       13.8041128660       31.2636742386
  H         5.3791525332       14.7536360325       20.1881305771
  H         4.3822294504       13.4907238414       20.9080452133
  C         6.0805277643       12.7677534754       19.9629375905
  C         3.4460205498        7.3795388287       15.8933748709
  H         2.0087889086       10.9352586537       29.1329027298
  H         1.2016618154       10.3447833560       30.5505807921
  C         2.8284543156        9.1167576206       29.9822766095
  H        -2.8156378045       10.5465715898       26.4882481796
  H        -3.3328645061       10.7926818906       28.2154290403
  C        -4.2464637869        9.2230402610       27.2113697725
  C        -1.6426177840       15.2350698559       31.4298875063
  C        -1.9965921990       13.0209162410       32.4450081910
  H         6.4137719496       11.9265206799       20.6633891265
  H         5.3860214633       12.3558781344       19.2792075004
  C         7.2503363930       13.3622966257       19.1471481299
  H         3.4767163243        6.3193351362       16.0280186555
  C         3.8108926838        7.8917704611       14.6681131441
  H         3.2029916043        8.6864315204       29.0603348687
  H         2.3262831465        8.3225175994       30.5535332709
  C         4.0174244703        9.8997209355       30.6253497972
  H        -4.0715523358        8.7133056358       26.2949125596
  H        -4.4540601440        8.6142993827       28.0921716973
  C        -5.5347625599       10.0784553772       27.0204743971
  N        -1.2234364051       16.1242177273       30.4409522545
  C        -1.8685614043       15.8192714755       32.6403818932
  C        -2.2328955075       13.5462393819       33.6723758768
  H        -1.9195867591       11.9340822426       32.4087859379
  H         6.6813078433       13.8880186960       18.2883932696
  H         7.8016653243       14.0641981368       19.7654436854
  H         7.8095943353       12.5088557249       18.7988893119
  S         3.9238388757        9.5122217894       14.0677893924
  C         3.9743289848        6.8846366182       13.6103987925
  H         4.2566055282       10.8117611709       30.0814787891
  H         3.6582050179       10.2360330159       31.6412426457
  C         5.3817028910        9.0311244802       30.6068722080
  H        -5.5472504258       11.0186348755       27.5644853423
  H        -6.3564480581        9.5768873897       27.5761767202
  C        -5.7559876171       10.4556752715       25.5847244781
  S        -1.3520090750       17.6162507800       30.9999227702
  N        -1.7908670833       17.2298090017       32.5163410263
  C        -2.1696743297       15.0743676829       33.8332542410
  H        -2.4300211050       12.8498535710       34.4811592526
  C         4.3714615355        8.8922844612       12.5448109945
  N         4.3080921024        7.5273601194       12.5061056036
  O         3.7388731182        5.6982719805       13.7199245636
  H         6.2932701999        9.6107625720       30.8956777331
  H         5.5363067874        8.7201367753       29.5312504508
  C         5.5266220739        7.6723755105       31.3263726246
  H        -4.8742627125       11.1176408654       25.3475801612
  H        -5.5879689433        9.7164261832       24.8972700962
  C        -7.0463367997       11.1449406150       25.1941887641
  C        -2.4370786916       15.7978679545       35.0551862388
  S         4.5959861200        9.7512467327       11.0491737083
  C         4.3786075457        6.7459041488       11.2988347777
  H         5.3464534345        7.8957183877       32.4065534197
  H         4.7707016328        6.9533688972       31.1206591315
  C         6.9093660000        6.9997015530       31.1162009026
  H        -6.9935817725       11.4814888514       24.2024811054
  H        -7.2346894559       12.1140374638       25.7994510325
  C        -8.3058863557       10.1942505428       25.4002272530
  H        -2.1167267606       16.8369408739       35.0900066567
  C        -3.0681089118       15.4146912336       36.1887116796
  H         5.2315184456        7.0377486576       10.7132809410
  H         4.4451244785        5.6980055291       11.5596026872
  C         3.1826372028        6.8775597903       10.3684882491
  H         6.6702841647        5.9653787590       31.4872704814
  H         7.6925099402        7.4109317785       31.7487539914
  C         7.5622866490        7.0276568416       29.7113088967
  H        -8.7835451339       10.0134161416       24.4113773147
  H        -7.8151487836        9.2427651654       25.5319478515
  C        -9.2755453028       10.5397082803       26.4790755482
  S        -3.6925185476       13.8775286154       36.5325473586
  C        -3.1622313061       16.3886199661       37.3563195536
  H         2.7349780407        5.9553960856       10.0844819450
  H         2.3572924216        7.4765044376       10.8626333088
  H         3.4100891594        7.2792499535        9.4209740407
  H         6.7865370825        6.7748790707       28.9520374209
  H         8.2663015406        6.2060860240       29.6529459949
  H         7.9348555460        8.0222050709       29.4335765103
  H       -10.0801773361       11.2522998143       26.1295811122
  H        -8.6820236915       11.0362507612       27.3139135853
  H        -9.9576966980        9.7151146609       26.7621135498
  C        -4.1833695818       14.5082982160       38.1677918173
  N        -3.9048679367       15.8420662383       38.3619050233
  O        -2.8826951668       17.5777818458       37.2396351973
  S        -5.2750851240       13.6363788426       39.3444117749
  C        -4.2397713443       16.5063620152       39.5968203414
  H        -4.4445087099       17.5796535218       39.4312600157
  H        -5.1780828026       16.1865712217       40.0277596503
  C        -3.0534647513       16.3374412542       40.5668409212
  H        -3.2123850729       16.8645766115       41.4893000803
  H        -3.0038843816       15.3049674418       40.9986188270
  H        -2.0517169875       16.4744643267       40.1783424829
