352
i=
  H         3.0746951023        1.0588054298       13.5688866947
  C         3.6351298078        1.9188167500       13.3092133199
  H         4.6721621176        1.5341362674       13.1545890399
  C         3.0947112603        2.5950212893       12.0674448324
  C         3.7861194537        2.7721771919       14.5548425129
  C         4.2233318274        2.7858096801       11.0314053451
  H         2.7832249343        3.5899515253       12.2487704837
  H         2.3003897833        1.9941898398       11.5613917317
  H         4.4780058339        2.2358215327       15.2826536881
  H         2.8097168636        2.8971379480       14.9921051514
  H         4.2257533503        3.7941278535       14.3292990775
  C         4.6552660038        1.4842567382       10.3734967592
  H         3.8807280987        3.4182231292       10.2438871455
  H         4.9608906117        3.4545046686       11.4308451964
  C         5.2576260665        1.7428579115        9.0153422603
  H         3.8008300697        0.9280346085       10.2770420369
  H         5.4413679417        1.0463476519       10.9743301386
  C         6.4923533955        2.6922195910        9.0204664192
  H         4.5501670319        2.0594009652        8.2681714559
  H         5.5339315964        0.8284120887        8.5212005267
  C         7.7206332086        2.0414381063        9.5324209697
  H         6.5478823980        3.0521013129        7.9382300788
  H         6.4007462643        3.5341978822        9.6992141090
  C         9.0121920047        2.8798268925        9.5977619529
  H         7.9952866514        1.2647481121        8.8279686717
  H         7.6005007357        1.5437885808       10.4808287717
  C         8.7312693878        4.2023271191       10.3028104850
  C         9.4200341624        3.5238062288        8.3067339700
  C        10.1920525390        2.1567919362       10.3680982329
  C         8.9739910934        5.2603618437        9.4967167643
  C         8.3215102935        4.6221060301       11.6207625458
  C         9.4115663860        4.8722673002        8.2413456581
  C         9.8366382182        2.8670457977        7.1374704407
  H         9.8092327816        2.0007135041       11.4300280306
  H        10.3688468852        1.1833590098        9.9565986587
  C        11.5002929291        2.9754045411       10.3167121917
  S         8.6125392032        6.8425179028       10.2229340254
  C         8.0808744075        5.9903804301       11.6469286125
  H         8.1320374901        3.8247756380       12.3629796318
  C         9.7465536775        5.5322073705        7.0825775227
  H         9.8588824443        1.7945419351        7.1299610540
  C        10.3283328012        3.4889174336        6.0069468544
  H        11.2503504886        3.9619576381       10.5960437911
  H        11.9004849909        3.0719257000        9.3390171412
  C        12.5623344749        2.4031150941       11.2667273121
  C         7.5452601214        6.7689229350       12.8135552462
  C        10.2368458620        4.8858683160        5.9436649521
  H         9.6823109878        6.6227428253        7.0976062654
  C        10.8047383133        3.1790950579        4.7283633433
  H        13.5664145066        2.8616992352       11.1149039352
  H        12.6335004412        1.3979190171       11.0226382563
  C        12.2051994219        2.6496726288       12.7027977874
  C         7.6041335555        8.1509910890       13.0885625351
  C         7.0724043115        5.9175500987       13.9066989676
  C        10.6278676043        5.5479523791        4.6499886388
  C        10.9281223648        4.2716103212        3.8828586940
  S        11.1403243838        1.6609759174        4.0019634361
  H        12.7371559263        3.4308475512       13.1717108599
  H        11.1125925762        2.7181296492       12.7623617298
  C        12.4398002161        1.3774187349       13.4617764353
  N         7.9747822795        9.0941704465       12.1661203016
  C         7.4578073282        8.6361782062       14.3839697627
  C         6.7803217208        6.4080715364       15.1938406499
  H         6.7027177274        4.9256250436       13.7175177708
  C        11.8193129710        6.5097121798        4.6665318791
  C         9.5224835937        6.2915711907        3.9683964245
  C        11.3495802647        3.8473563331        2.5669967064
  C        11.4556083751        2.4834633725        2.4667914996
  H        13.4585230290        1.1158942197       13.3767230411
  H        11.9226431245        0.5146982550       13.1041542117
  C        12.0072790590        1.4647621628       14.9074936857
  S         8.1783838833       10.4725587396       13.0094802954
  N         7.7382505587        9.9406199642       14.4747745280
  C         7.0548241501        7.8451713209       15.5048738069
  H         6.1982969836        5.7437764890       15.8351072602
  H        11.6730784583        7.4132264950        5.2290592715
  H        12.1519313627        6.9589662355        3.7655603155
  C        13.0816854728        5.7428086730        5.1501920239
  H         9.0873394921        6.9982378410        4.6868046790
  H         9.8786121238        6.9826410570        3.1498528297
  C         8.3993232678        5.4718637558        3.3335466440
  H        11.4700289400        4.5290380901        1.7686061454
  C        11.6254802034        1.7011748094        1.2288606078
  H        11.0132694836        1.7748840553       14.9055051049
  H        11.8614039820        0.4553673457       15.2884676371
  C        12.9357855042        2.5210495580       15.6425955877
  C         6.9250043066        8.4967520486       16.8007489013
  H        12.8046773673        5.2660086541        6.1366725630
  H        13.2833961423        4.8323597930        4.5258162382
  C        14.4587046603        6.4149826225        5.3023363980
  H         7.9843852018        4.7193894924        3.9777659668
  H         8.7666382076        4.9297180555        2.4838020109
  C         7.3367976943        6.4110330580        2.8276223339
  C        11.5147385101        0.2663496855        1.1098788552
  C        11.7599459790        2.3997411465       -0.0236073936
  H        12.5495431584        3.4994955938       15.5929893648
  H        14.0226704079        2.4546709206       15.2787533841
  C        13.0469192696        2.2036078400       17.1032819777
  H         7.5509528236        9.4205430818       16.8017655800
  C         6.4474604865        8.1395682975       18.0509344136
  H        14.3947541914        7.2846863515        5.9788816447
  H        14.8757163827        6.6240839257        4.3260312300
  C        15.4682057427        5.4172403723        5.9284972167
  H         6.9699754512        7.1126341186        3.6139075992
  H         7.6844211168        6.9912163341        1.9775449781
  C         6.0121503753        5.7604278644        2.5748842889
  N        11.3566699099       -0.6321168430        2.1517677937
  C        11.8011380745       -0.3822767910       -0.0826149893
  C        11.9762341478        1.7735504896       -1.2270305574
  H        11.7542775171        3.4325361976       -0.0053167609
  H        13.6557044281        2.9340944307       17.6591721062
  H        13.3973250134        1.1614434575       17.3099126786
  H        12.0921104227        2.2385446551       17.5783896985
  S         5.7780452841        6.5925217710       18.5540875961
  C         6.5257438088        9.2242943084       19.0297263990
  H        15.0751475776        4.6745348022        6.5782754779
  H        16.0355860997        4.8876786422        5.1850244896
  C        16.3666642280        6.2612815103        6.7804053792
  H         5.5595965596        5.4544479762        3.5144488020
  H         6.0411914406        4.8331590832        1.9851654152
  C         5.1708603714        6.6695681097        1.6568360462
  S        11.2879765114       -2.1281826085        1.5642621324
  N        11.7570878304       -1.7576576294        0.0414531022
  C        12.1049578920        0.2998651629       -1.2787188789
  H        11.9855148454        2.4397643937       -2.0781874117
  C         5.5914843214        7.3928549122       20.0845751321
  N         6.1516731949        8.6442730099       20.1653809205
  O         6.9107513888       10.3459855194       18.7979315123
  H        16.5955779821        7.0600514258        6.1084517013
  H        15.7715805529        6.7647845195        7.5670719109
  C        17.6379312476        5.4959358675        7.1963424288
  H         5.6767042154        7.1114867482        0.7575845572
  H         4.3657401509        6.0154376026        1.3128864239
  C         4.5569054561        7.8060902713        2.4875525883
  C        12.4238233833       -0.5135863987       -2.3974668735
  S         5.1412433156        6.5842659354       21.5152151264
  C         6.2821079075        9.3359090428       21.4468310296
  H        18.0617905278        5.8888835578        8.1209136329
  H        17.4122655109        4.4422659842        7.3989794710
  C        18.7355595384        5.5736785515        6.0644864183
  H         4.9385433804        7.7258294302        3.4917976470
  H         3.5148890739        7.5775576837        2.6247697050
  C         4.7719900251        9.1975343835        1.8449227339
  H        12.3371540404       -1.5089337027       -2.2281579750
  C        12.8573266056       -0.0957524212       -3.6503906107
  H         5.8759084096        8.8448285668       22.3725854318
  H         5.6758134749       10.1737984939       21.3078297255
  C         7.7479160176        9.8624433346       21.6454401381
  H        18.9422667382        6.6079146406        5.6790011244
  H        18.4117711590        4.9674125397        5.1972254360
  C        20.1096774124        5.1179813745        6.3849243827
  H         4.4716034621        9.9482416216        2.5686188347
  H         5.7954357783        9.4632284196        1.6635067751
  C         3.9130441290        9.3625816023        0.6550873081
  S        13.0549791621        1.5726027830       -4.2210027937
  C        12.9655866212       -1.1250564128       -4.7051404641
  H         7.8814164229       10.0934261243       22.6912865204
  H         7.9896425834       10.7178540664       21.0046700583
  H         8.4848437549        9.0527962101       21.5151232700
  H        20.5285139073        4.4018883111        5.6471396786
  H        20.6427013984        5.9920738133        6.2555219606
  H        20.1943602709        4.8484283920        7.4346375713
  H         2.9370330615        9.8347791666        0.8413517873
  H         4.4473275191        9.8952304011       -0.1020262443
  H         3.7555266791        8.3346578043        0.1948948696
  C        13.7586078983        0.7889366305       -5.7222821778
  N        13.4484580834       -0.5214052679       -5.8854219795
  O        12.6165649824       -2.2842027085       -4.4768966383
  S        14.4683288263        1.6425040373       -7.0869954221
  C        13.7898384241       -1.3282344811       -7.0824997055
  H        13.8187280419       -2.3848581121       -6.7697040686
  H        14.8278297635       -1.2664062561       -7.4013893073
  C        12.7980257496       -1.2972008076       -8.2576358508
  H        11.7701822254       -0.9718572883       -7.9529180328
  H        12.6318548932       -2.2802383441       -8.5573493982
  H        13.1823902310       -0.6722929022       -9.0586815956
  H        -2.7802088168       15.0722131776       16.6412904098
  C        -2.7746784942       13.9913305020       16.9585116710
  H        -3.7384666345       13.6445695313       17.3630558768
  C        -1.5789325527       13.5674786227       17.8315994653
  C        -2.7564784650       13.3273863172       15.6616566055
  C        -1.5916574002       13.9410002315       19.3076045694
  H        -1.3642700919       12.5318482596       17.7369802857
  H        -0.7164302797       14.0734957915       17.4069911515
  H        -1.8173338496       12.8681595717       15.4866281208
  H        -3.5791970430       12.6193281382       15.6712724750
  H        -2.9640282706       13.9939735442       14.8175725492
  C        -2.6558061985       13.1672245055       20.0537387588
  H        -1.7759925347       15.0378820450       19.5053228758
  H        -0.6321245158       13.7958582696       19.7348378385
  C        -2.5124176664       13.4748336213       21.5006991935
  H        -3.7115608752       13.4388871807       19.7293928585
  H        -2.4678758129       12.1226275992       20.0366104112
  C        -1.3250413203       12.7987378290       22.2511803028
  H        -3.4436084612       13.2098106697       21.9234630250
  H        -2.4574363142       14.4980478686       21.6604210204
  C        -0.1788985170       13.7200185173       22.7700913327
  H        -1.8196641577       12.3472590470       23.1185877733
  H        -0.9398056495       11.9185946907       21.7018725021
  C         0.9713923738       12.9471473890       23.3234996964
  H         0.1689711515       14.3117593072       21.9244091065
  H        -0.5524875792       14.5176756823       23.4011528459
  C         1.3308141820       11.6040122890       22.6203377147
  C         0.5350803286       12.1130801930       24.5095082853
  C         2.1108192342       13.8733239280       23.5433338386
  C         1.0931348236       10.4256355019       23.3895380797
  C         1.7251918782       11.2036301320       21.3621413003
  C         0.4374319112       10.7548023175       24.5738644828
  C         0.1238247963       12.6991796147       25.7195835913
  H         2.2804534330       14.4251274154       22.6169865145
  H         1.7487891806       14.4995159119       24.3660696228
  C         3.3134649514       13.1311668956       24.0807086093
  S         1.6381239493        8.9835112265       22.6262702010
  C         1.9570898407        9.8562369288       21.2060362024
  H         1.9155310582       11.9606861860       20.6575569826
  C         0.0649790277       10.1062422130       25.7632393754
  H         0.2061172841       13.7396859861       25.7714270731
  C        -0.3096406410       12.0289382989       26.8629286387
  H         3.7016202106       12.4015395670       23.3830004168
  H         3.1761405820       12.5076137936       25.0248197535
  C         4.4993668830       14.0856493677       24.5041326735
  C         2.4252542155        9.1988674625       19.9609287350
  C        -0.3318345724       10.6362523339       26.9382288988
  H         0.1484136686        9.0253254380       25.7567253947
  C        -0.7746276493       12.4892913216       28.0899536962
  H         5.1916112663       13.4085922494       25.0199793781
  H         4.1520822228       14.8281750960       25.1893977385
  C         5.1251226731       14.8532050995       23.2958337135
  C         2.4151008634        7.8076210745       19.7025932135
  C         2.9828144541       10.0448510189       18.8602088554
  C        -0.7008208163       10.0318111285       28.2477042376
  C        -0.9484020900       11.3888013504       28.9371369988
  S        -0.8832417863       13.9946636837       28.8114812776
  H         5.6672746702       15.6424620918       23.7082275082
  H         4.3042719618       15.3483026871       22.8550291443
  C         5.9056945634       14.0972137440       22.2064185383
  N         2.0307547272        6.8616170131       20.6224738755
  C         2.5871276348        7.2777331330       18.4113780901
  C         3.2827120015        9.5179444640       17.6126229047
  H         3.2306851355       11.1318113022       19.0518784109
  C         0.3903420601        9.2065079117       28.9503540469
  C        -1.9960672678        9.1471880045       28.0925348625
  C        -1.1806374065       11.8727793469       30.2603643036
  C        -1.2671419243       13.2379003829       30.2910387975
  H         6.6671327695       14.8021920494       21.8891610294
  H         6.3996429397       13.2023905849       22.5651979725
  C         5.0951888960       13.7584417526       20.9466199654
  S         1.9863201965        5.4121293004       19.8090203902
  N         2.3697844742        5.9118333537       18.3452672560
  C         2.9538306918        8.0795981647       17.3307451652
  H         3.7228168007       10.2180301101       16.9479419510
  H         0.7361082789        8.4299602635       28.2476900977
  H        -0.0014926712        8.5610389960       29.7541489369
  C         1.6122376483        9.9992473000       29.4729584070
  H        -1.7058078611        8.4260176726       27.3292100731
  H        -2.0968457031        8.6243378162       29.1009293860
  C        -3.2587448974        9.9471006211       27.6619383863
  H        -1.3590254301       11.1897461397       31.0370026169
  C        -1.6244862004       14.1062552033       31.4191228944
  H         4.6718309586       14.5889532231       20.4906462273
  H         4.3277782668       13.1032694385       21.3206248555
  C         5.8979236330       13.0440799242       19.8734794326
  C         3.1580198896        7.3607910919       16.0868691918
  H         2.1613707297       10.2732577469       28.5716948957
  H         1.4063355328       10.9203479916       29.9583812523
  C         2.6198524061        9.1498026203       30.2871900341
  H        -2.9667879096       10.5810597351       26.8056240110
  H        -3.5226230627       10.4838373753       28.5999258876
  C        -4.4452377075        9.0926639591       27.2338451777
  C        -1.7386865638       15.5041737370       31.4720622180
  C        -1.8384860946       13.3860559097       32.6699007411
  H         6.3613181584       12.2008077471       20.3225665723
  H         5.2707461382       12.6178622382       19.1232928197
  C         6.9689584665       13.8623164498       19.0053219738
  H         2.7438089028        6.3371919293       16.0276656696
  C         3.5233172809        7.8723536068       14.8793977830
  H         2.7540617060        8.2096938062       29.7297797518
  H         2.3611660684        8.9723181292       31.3564319660
  C         3.9896096431        9.7382724850       30.2356739080
  H        -4.1366934224        8.2663780986       26.6186701470
  H        -4.8188829963        8.5765435281       28.0876328212
  C        -5.4657542647       10.0487091460       26.5690533142
  N        -1.4070397189       16.4240494016       30.4528334046
  C        -1.9744341167       16.0948555739       32.6938664628
  C        -1.9540339802       13.9571899345       33.8392374865
  H        -1.6532476651       12.3387602064       32.7472034129
  H         6.6210762411       14.8383369246       18.6415112552
  H         7.8188065151       14.1348806632       19.6060614318
  H         7.4774634768       13.2997981304       18.2165001473
  S         4.0622181404        9.4888188825       14.5207693099
  C         3.5611541069        6.9061690039       13.7407778383
  H         4.2012821354        9.8224843186       29.1705783819
  H         4.0746430479       10.6564251016       30.7531131415
  C         5.0738067820        8.8442368962       30.7773778102
  H        -4.9366570678       10.2525473862       25.5880291722
  H        -5.7546334962       10.8799165010       27.2466240730
  C        -6.6565220767        9.4112062773       25.9498297106
  S        -1.5784305287       17.9177771023       31.1181584016
  N        -2.0288941004       17.4859544884       32.6147603816
  C        -2.2411230553       15.4157628276       33.9146519767
  H        -1.9341112844       13.3443178671       34.7139934037
  C         4.1866056167        8.8822483059       12.8612989547
  N         4.0137771940        7.5515774782       12.6598369162
  O         3.2412752610        5.7066768860       13.7798648882
  H         5.4049852317        9.3353769260       31.7232695734
  H         5.9034547878        8.9191909166       30.0750306924
  C         4.7190519393        7.3309858573       30.9418140497
  H        -6.2499584679        8.6891974809       25.3122487800
  H        -7.1908548778        9.0022143514       26.7070059132
  C        -7.5787563364       10.4389259165       25.2446293386
  C        -2.6541612662       16.1499255758       35.0682243619
  S         4.6000670630        9.8085093034       11.4112497904
  C         4.0241232235        6.8869568216       11.4062359561
  H         3.7441507199        7.1840425464       31.5033398781
  H         4.5344318857        6.9739869887       29.9245534387
  C         5.8616149354        6.3975491829       31.4358042209
  H        -7.0551118831       10.7519474177       24.2906600180
  H        -7.6935781847       11.2792101673       25.8814599115
  C        -8.8779490517        9.7284228036       24.7657020142
  H        -2.3551443086       17.2138644049       35.1014668831
  C        -3.2037594938       15.6476842681       36.2182008329
  H         4.8889731656        7.0861350432       10.7931316643
  H         4.0097343854        5.7891332969       11.5018381541
  C         2.8096558922        7.1773282332       10.5322632213
  H         5.3476688941        5.4674735899       31.8532861816
  H         6.3867985876        6.7658867062       32.3231119442
  C         6.9477989685        6.1216384043       30.3747550576
  H        -9.3480370157       10.1352730029       23.8620109843
  H        -8.5008826946        8.7452437397       24.5948850875
  C        -9.9587906235        9.8627431699       25.7966572034
  S        -3.7235080982       14.1252926815       36.6728777383
  C        -3.2501345619       16.6402619971       37.3316863426
  H         2.0846074288        7.6648866118       11.1009707876
  H         2.9328283215        7.7324706137        9.6055640079
  H         2.2262154021        6.2576196104       10.3922718119
  H         7.0491676710        5.1007464906       30.0882517459
  H         7.9514994016        6.2483011397       30.8658887228
  H         6.8475172940        6.6988600684       29.4949882277
  H       -10.9657988333        9.5457631846       25.5515803408
  H       -10.1760659044       10.8277747932       26.1598856271
  H        -9.6455329617        9.4814385282       26.8185244342
  C        -4.2080848053       14.7907286633       38.3271589014
  N        -3.9151707354       16.0940660014       38.4272387712
  O        -2.8489316557       17.8321564577       37.2225439872
  S        -4.9915286884       13.9160012248       39.6221126607
  C        -4.0216099556       16.8448534350       39.7307588036
  H        -4.3755918535       17.8305350403       39.5291716745
  H        -4.8862218734       16.5029067313       40.3662530920
  C        -2.7587456891       16.6123115307       40.5886973738
  H        -1.9308805801       17.1731863359       40.2368816400
  H        -2.9428096146       16.9293433473       41.6007439971
  H        -2.4336517136       15.5869876841       40.5290364579
