352
i=
  H         2.5846219973        0.8567370108       13.1800655738
  C         3.5376415044        1.3554920083       13.0486492945
  H         4.2465098155        0.5763765147       12.6714959642
  C         3.1775357386        2.3991590411       12.0016409267
  C         4.0716525781        2.0200393541       14.3428188239
  C         4.4056763935        2.5154085238       11.0730310225
  H         2.8983374042        3.3260346675       12.4777482579
  H         2.2087216751        1.9824682078       11.5344602292
  H         4.5071956279        1.2896159479       15.0278834800
  H         3.2574811725        2.5797696886       14.8429627262
  H         4.8867692313        2.6038271760       14.0681884317
  C         4.7634525142        1.1881363284       10.3067505869
  H         4.1809659787        3.2042971073       10.2381051046
  H         5.2647135624        2.9139615713       11.5857817212
  C         5.0408025357        1.3522401480        8.8071185401
  H         4.0323725927        0.4347848404       10.3166382864
  H         5.6703542234        0.7738709742       10.7052443109
  C         6.2239694147        2.2356882156        8.4570604993
  H         4.1216524239        1.8604083981        8.4925361370
  H         5.1236217598        0.4555197685        8.1653557122
  C         7.4940058048        1.5014312123        8.7836330381
  H         6.1648118117        2.4470229033        7.4376272604
  H         6.1697236749        3.0438320492        9.1113902555
  C         8.7979733786        2.4113629673        9.0382302851
  H         7.7615948368        0.7453868396        8.0444218424
  H         7.4930393890        0.8570212480        9.5942922770
  C         8.5207415009        3.7478273216        9.7994792279
  C         9.3012531465        3.1018444796        7.8557795376
  C         9.9505742840        1.6751689734        9.8154780225
  C         8.7819785302        4.8532735599        9.0267167877
  C         8.0488432613        4.1384562808       11.0981813499
  C         9.2392771623        4.4601186122        7.7872299404
  C         9.8815363992        2.5631284229        6.7038824313
  H         9.5134923271        1.2064547659       10.6577465216
  H        10.2549839249        0.8237769794        9.1983416686
  C        11.1642795805        2.5273393619       10.1917560807
  S         8.3900997702        6.3322612295        9.7817090654
  C         8.0043776347        5.4736195207       11.2076619500
  H         7.7951498646        3.3436099558       11.7835449991
  C         9.5476891191        5.0680639245        6.5958981297
  H         9.8725698303        1.4996964649        6.7222100757
  C        10.2040311246        3.1596714744        5.5130514016
  H        10.9324285900        3.3266202799       10.9330496141
  H        11.6912891050        2.9703309640        9.3449728644
  C        12.2289470029        1.7326133699       10.8917510951
  C         7.5776441864        6.1321326725       12.4986068545
  C        10.0903092571        4.5024745207        5.4745952941
  H         9.4182544992        6.1369364846        6.5091105329
  C        10.5995769482        2.8448221747        4.2436519471
  H        13.0754631888        2.4102072649       10.8527966999
  H        12.5901773060        0.8180381464       10.3313926944
  C        11.8895492425        1.3328231956       12.3450627473
  C         7.6558439529        7.5016607031       12.7414632412
  C         7.2072765051        5.2838987954       13.6917274912
  C        10.3788073585        5.2302681798        4.2113560911
  C        10.8179518679        3.9618026285        3.4578629968
  S        10.8917791902        1.3479000328        3.4079389928
  H        11.1103078904        2.0721270619       12.7165242432
  H        11.5586289298        0.3195796120       12.2866825369
  C        13.0590268554        1.5116552494       13.2740202930
  N         7.9133837721        8.4835038064       11.7860869151
  C         7.3983890714        8.0284492558       14.0097170428
  C         7.0633269066        5.8148864150       14.9485598729
  H         7.2187422072        4.1927033919       13.6383505425
  C        11.4938419883        6.2947878492        4.3863902041
  C         9.1750493098        6.0017108249        3.5265445023
  C        11.3799220060        3.6006631451        2.1997286940
  C        11.3723182548        2.2257802897        2.0245536930
  H        13.3745582850        2.5913566076       13.4706600905
  H        13.9296194289        1.0779201943       12.7759030322
  C        12.9521811443        0.8906300114       14.6920342421
  S         7.9475720797        9.9104472805       12.6101677967
  N         7.5597186033        9.3873850900       14.1010602513
  C         7.1231350967        7.2634144012       15.1761557368
  H         6.8007931030        5.1645198043       15.7080161248
  H        11.3067926159        7.0273865461        5.1368699998
  H        11.8383880285        6.8163280284        3.5226125476
  C        12.7398421637        5.7419259549        5.0360486637
  H         8.6288254501        6.6126434355        4.3089630018
  H         9.5920688066        6.7475222347        2.8644496436
  C         8.1413483500        5.2137149778        2.7162858562
  H        11.5909054595        4.4605462660        1.5581620619
  C        11.8088435860        1.5558235075        0.7752945518
  H        12.2726643966        0.0435901866       14.5986366739
  H        13.8954550024        0.4430914288       14.8476829536
  C        12.7844281652        1.8549204222       15.8753193008
  C         6.8493363387        7.9176107123       16.4291318858
  H        12.5547346025        5.5445632588        6.0932588017
  H        13.0222211851        4.7780907527        4.5579510030
  C        13.9759451522        6.6913904189        5.0678775396
  H         7.8350003492        4.4941000428        3.4819370613
  H         8.6109263571        4.5930539821        1.9158687653
  C         6.9645868086        6.0384173184        2.1863365915
  C        11.8774364953        0.1415328537        0.5594489988
  C        12.2316658384        2.4384995342       -0.3216299504
  H        12.1522448343        2.6861458812       15.4342476159
  H        13.7475013859        2.2917297412       16.1468138789
  C        12.2737415613        1.2381130709       17.2101148393
  H         6.9327163656        9.0012872173       16.4752901829
  C         6.5204855156        7.4784260553       17.7070962926
  H        13.7402836362        7.6465044309        5.5271591680
  H        14.3851992328        6.8630371195        4.0666529828
  C        15.0530907016        5.9902687059        5.8169609451
  H         6.8742969639        6.9517059063        2.6928239619
  H         7.0567212259        6.2854400740        1.1236407290
  C         5.6331577163        5.3116476568        2.4043660161
  N        11.6024379632       -0.8155119426        1.5107220925
  C        12.2039335950       -0.3109545098       -0.6984955062
  C        12.5309132476        1.8552602896       -1.5735550402
  H        12.1569674115        3.4564538918       -0.2828941939
  H        12.4740156427        2.0464547285       17.9598924311
  H        12.7521458633        0.2731041272       17.3925632307
  H        11.1733707145        1.1986762048       17.0940494904
  S         6.3279629217        5.8353232889       18.2146918861
  C         6.3144553087        8.5057698749       18.7624362560
  H        14.8263805550        6.1853184297        6.8525154385
  H        14.9421481655        4.9341227178        5.6129213323
  C        16.5135247367        6.2804595093        5.5661888260
  H         5.4361770682        5.2372647149        3.4430889110
  H         5.7689155907        4.2904237656        2.0899469308
  C         4.5186332250        5.9238399039        1.6474767484
  S        11.5782999787       -2.2118821943        0.7279013369
  N        12.2754030871       -1.7380957725       -0.6969111973
  C        12.6032517517        0.4308277375       -1.7810330330
  H        12.5898373558        2.5585983227       -2.4127340202
  C         6.0789849825        6.5238249770       19.8122474271
  N         6.1187451464        7.8550581011       19.9275997569
  O         6.5739825172        9.7269517951       18.5772415973
  H        16.8525364043        5.6964680987        4.6720329780
  H        16.8256460875        7.2841406224        5.4507676081
  C        17.3330872199        5.7807555275        6.7919690902
  H         4.8312524896        6.0989695256        0.6324359660
  H         3.6381191589        5.2443011519        1.6388661555
  C         4.0632359535        7.2306898423        2.2547680153
  C        12.7214037133       -0.2743986092       -3.0521562512
  S         5.8379186636        5.5850996408       21.3025819307
  C         6.0634278184        8.5985895693       21.1761647181
  H        17.3054400073        6.6681970519        7.4622592842
  H        16.6562710217        5.0849071978        7.3472722374
  C        18.6672625476        5.1805207498        6.5968292690
  H         4.3431123959        7.3252857731        3.3528004000
  H         2.9958662009        7.1168435780        2.2801658719
  C         4.3892974504        8.4964313714        1.4974614689
  H        12.1224941932       -1.2023853309       -3.0910182904
  C        13.3039119047        0.1260281246       -4.2621314027
  H         5.2623432372        8.3175616460       21.8411302338
  H         5.8915466800        9.5752425621       20.8180429504
  C         7.4839399250        8.5475860282       21.8023116105
  H        19.0358743262        5.1144024760        5.5496122297
  H        18.6880669145        4.1204165232        6.9292391416
  C        19.6622998514        5.9274431829        7.4352370367
  H         4.0989501195        9.3363321326        2.0967382244
  H         5.4359846853        8.5724313303        1.2245909241
  C         3.6639189163        8.7346164517        0.2140277123
  S        14.2319108569        1.5600824527       -4.4184411112
  C        13.2620759016       -0.8196671565       -5.3553701864
  H         7.6610574617        7.5774589900       22.1920937004
  H         7.5631313500        9.2632369680       22.6335420602
  H         8.2326147315        8.8129181856       21.0720325871
  H        20.6042302800        5.6399431609        6.9906246478
  H        19.5027626510        6.9909623582        7.5957939625
  H        19.7952664127        5.6263570423        8.4822326150
  H         3.4345505618        7.7392612145       -0.2065549476
  H         2.6398161617        9.1895274224        0.3293630142
  H         4.2271323992        9.3492445195       -0.4682929950
  C        14.5180218340        0.9087535736       -6.0119337809
  N        14.1001049905       -0.3527724172       -6.2814022622
  O        12.6988087800       -1.8949857333       -5.1959172297
  S        15.5813326155        1.6924431389       -7.1633797177
  C        14.3902298849       -1.0295378157       -7.5583377880
  H        14.6195162362       -2.0856935508       -7.2899522568
  H        15.2380773637       -0.7197182134       -8.1202313371
  C        13.2357231672       -1.0700530545       -8.5300419749
  H        13.0778844000       -0.1768340111       -9.1567937772
  H        12.3110275754       -1.3171918190       -8.0174629290
  H        13.4989731480       -1.8970200539       -9.1429243379
  H        -3.5497145328       14.5867209019       16.3430518644
  C        -3.4316203424       13.5449641582       16.3294400676
  H        -4.3711134200       13.0630418537       16.6783115516
  C        -2.2425982521       13.2342076934       17.3337434006
  C        -3.1011270573       13.0589928281       14.9146597797
  C        -2.3644659105       14.1394934997       18.5480763098
  H        -2.2215944156       12.2265212502       17.6227674506
  H        -1.2571948346       13.3665507273       16.8350260102
  H        -3.0398685629       11.9647937667       14.7831946136
  H        -3.6984082197       13.5176971983       14.0964028918
  H        -2.0620988072       13.3393832599       14.6707976803
  C        -1.3915493709       13.6918215980       19.6875005231
  H        -3.3726901430       14.3089638154       18.9087839824
  H        -2.0312797369       15.0611633336       18.0581793991
  C        -2.0383218738       13.4798749097       21.1008911381
  H        -0.8977525258       12.7569240326       19.4197752258
  H        -0.5306422575       14.3868867004       19.7898136088
  C        -1.0761640079       12.8480975159       22.1017920154
  H        -2.9237678135       12.8956494774       20.8529220978
  H        -2.4393134273       14.4630354606       21.4436516821
  C         0.1104934353       13.7535801992       22.4512404153
  H        -1.6838699946       12.4574894444       22.8614045303
  H        -0.6371796234       11.9040352269       21.7045621466
  C         1.2332630897       12.9986900742       23.2581501396
  H         0.6086199739       14.2310818019       21.5686425115
  H        -0.3091714068       14.5133245343       23.0436858355
  C         1.5810086075       11.6137296042       22.6665091474
  C         0.6366364608       12.3302849482       24.5268816174
  C         2.3763071988       14.0224826036       23.5784730650
  C         1.1916641334       10.5509122902       23.4961652117
  C         2.0359875708       11.1223862811       21.4076043095
  C         0.5591862284       10.9989273615       24.5921974572
  C         0.2646616457       13.0129183490       25.6542543753
  H         2.5355624910       14.6251851116       22.6923843516
  H         1.9844583070       14.7256112529       24.3066960099
  C         3.6280192603       13.3946195582       24.1239261836
  S         1.6085163691        9.0031536700       22.8670999378
  C         2.1366707132        9.7716862813       21.3971330929
  H         2.3384412005       11.7621049371       20.6062552452
  C         0.1071965166       10.4151884639       25.7492221785
  H         0.1952635642       14.0846339449       25.7165954095
  C        -0.2323744970       12.3911363290       26.8023065729
  H         3.9621193909       12.5780120188       23.5066488088
  H         3.4393761924       12.9077162556       25.1046503122
  C         4.8148679115       14.3374975704       24.2641114125
  C         2.4662756073        8.9780315514       20.1419976119
  C        -0.3303589831       11.0481332627       26.8775677875
  H         0.1690981063        9.3767979673       25.8982024259
  C        -0.6584244164       12.7640726025       28.0541110427
  H         5.6089918104       13.9325464006       24.8805861059
  H         4.4199228211       15.0717068220       24.9710050252
  C         5.4811809548       14.8769364801       22.9956202806
  C         2.5937440526        7.5551770738       20.1161766654
  C         2.7389436009        9.7041478746       18.8949121863
  C        -0.8619848639       10.3302953029       28.0929570982
  C        -1.1025692549       11.7184297161       28.7772284539
  S        -0.7672921397       14.2827637159       28.8617136358
  H         6.0380694706       15.7729128026       23.3289314979
  H         4.6994329112       15.2364693076       22.3197732895
  C         6.3188619323       13.7753724648       22.3098825131
  N         2.4577556668        6.7263777304       21.1992436742
  C         2.9080855187        6.8702234275       18.9576530447
  C         2.9398791984        8.9796342937       17.7254873805
  H         2.7075191997       10.7376168221       18.8455962382
  C         0.1927020250        9.4939294938       28.8309138157
  C        -2.1345276726        9.5234260466       27.7311678990
  C        -1.5798596920       12.0941744760       30.0708728258
  C        -1.3435956070       13.4338369542       30.2820951092
  H         7.3432593372       14.1201374325       22.0352666098
  H         6.6329241541       12.9185037606       22.9912780718
  C         5.5752224613       13.1301453675       21.1651113770
  S         2.3050414765        5.2297890892       20.6100001071
  N         2.7103476167        5.5378670887       19.0747013151
  C         3.0427457145        7.4985783406       17.7285901272
  H         3.0701454682        9.5099536271       16.7884985440
  H         0.6799596978        8.8607358652       28.0782319920
  H         0.0141078508        8.7667151864       29.6802140936
  C         1.4332174494       10.3128663186       29.3103691857
  H        -1.8735774528        8.6247480200       27.2705491605
  H        -2.4425457438        9.1022678791       28.6514836915
  C        -3.3484891702       10.2408822591       27.1193655979
  H        -1.9839612984       11.3391937673       30.7115146552
  C        -1.5589117466       14.1290673880       31.5583488109
  H         4.7964322664       13.7584189977       20.7008802629
  H         5.0062915416       12.3968493157       21.6356323182
  C         6.4174190786       12.6101848458       20.0394385018
  C         3.2200280630        6.7805723019       16.5214088943
  H         1.8033986469       10.8244220166       28.4420981396
  H         1.2198522950       11.0596520303       30.1119509093
  C         2.5804631783        9.3871722785       29.7397104903
  H        -3.1155354671       10.3953000088       26.0796186622
  H        -3.3859159074       11.2041038355       27.5733816142
  C        -4.5893473039        9.5646193754       27.2534195758
  C        -1.6520665149       15.5424073632       31.7333366692
  C        -1.7426320048       13.3596615372       32.7784148620
  H         7.1284520363       12.0317077028       20.5303374833
  H         5.9886303968       11.7907846322       19.3983862959
  C         7.1882468227       13.5896951139       19.1538852934
  H         3.0478377282        5.6939627266       16.4539243920
  C         3.6143656491        7.2117441145       15.2743722681
  H         2.5349735437        8.4467176336       29.1757424377
  H         2.4893924952        8.9483524498       30.7502843197
  C         3.8813887312       10.1367354632       29.9918540141
  H        -4.4482259862        8.5445902536       26.7699203138
  H        -4.8692994396        9.4438494255       28.3080600971
  C        -5.7086641005       10.4273367829       26.6763757678
  N        -1.5219914195       16.5897576201       30.7490775990
  C        -1.9492179508       16.1468620322       32.9451966540
  C        -2.1519738830       13.9991299470       33.9658897212
  H        -1.6305442390       12.3037536699       32.7149914402
  H         8.0599914078       13.9411132257       19.5971835341
  H         7.4587360799       13.0546491157       18.2598217549
  H         6.5030045076       14.3664751522       18.9119003192
  S         3.9289559281        8.8845361753       14.7687642427
  C         3.7382743312        6.2087959182       14.1683797491
  H         3.9481145924       10.9863334563       29.2945467714
  H         3.7205545581       10.5363435190       31.0186902475
  C         5.1770124952        9.3002567701       29.7494005178
  H        -5.3504443917       10.9393869796       25.7565143309
  H        -6.0223639960       11.1243334025       27.4295436954
  C        -6.9836639627        9.6982738414       26.2613415955
  S        -1.4902145224       18.0648072314       31.3846605670
  N        -1.9274766789       17.5472177874       32.9021219885
  C        -2.1937903324       15.4207388061       34.1289264458
  H        -2.2945020253       13.4125057285       34.8487246962
  C         4.1905629210        8.2371040768       13.2033596964
  N         4.1403450785        6.9216523016       13.0874408528
  O         3.5311005168        5.0375741382       14.2687648314
  H         6.0376661343        9.8756278134       29.8691541979
  H         5.2131364705        8.7564369223       28.8489107859
  C         5.1681574932        8.2499998036       30.8540188280
  H        -6.5892668136        8.9696395837       25.5518150550
  H        -7.4708005670        9.1733437644       27.0752149577
  C        -7.9839843471       10.6664952616       25.6202528766
  C        -2.4037874190       16.1700462203       35.3420291181
  S         4.4991512291        9.2464916132       11.8233864715
  C         4.2491360517        6.2530184618       11.8294582547
  H         5.1355393356        8.8063462440       31.8047676307
  H         4.2832145916        7.6994223636       30.8069166757
  C         6.2314378414        7.2031912260       30.6838083775
  H        -7.4959156566       11.1737511006       24.8277566394
  H        -8.1783436209       11.4183612561       26.3772319320
  C        -9.2276340859        9.9987158081       25.1379800126
  H        -2.1316570499       17.1658489004       35.3188048356
  C        -2.9439500184       15.8181396627       36.5175176271
  H         4.8356751398        6.8364881654       11.1155438609
  H         4.8587353969        5.3599828844       11.9307143504
  C         2.8443323423        5.9499111365       11.2343377787
  H         7.2423301589        7.5378626558       30.5054568963
  H         6.1522194699        6.7309979978       29.6959964851
  C         6.2099194920        6.1900704722       31.7417410975
  H        -9.5308017524       10.5126652708       24.2598139097
  H        -8.9431079606        8.9809508723       24.8368502463
  C       -10.3355340528       10.0071149852       26.0969889946
  S        -3.5209125866       14.2202860289       36.9877642002
  C        -3.2133083159       16.8156093835       37.5606574932
  H         2.3843189049        6.7968468828       10.7064430525
  H         2.8336557513        5.0048018300       10.6788418635
  H         2.1226486132        5.8507426066       12.0516499231
  H         5.1711006367        6.0297301948       31.9840568125
  H         6.7309153668        6.6161811850       32.6293803127
  H         6.6155847036        5.1939134538       31.3955775144
  H       -11.1858732240        9.4638986161       25.7666825013
  H       -10.6944160699       10.9935239270       26.4255797585
  H       -10.2376549876        9.7523639204       27.1311857079
  C        -3.9594694407       14.8946677893       38.5292373009
  N        -3.7509972412       16.2689205479       38.6877741882
  O        -2.9230566061       17.9902084735       37.3440170681
  S        -4.6101185856       14.0862726019       39.9758085561
  C        -4.0380870843       16.9969305718       39.9598033926
  H        -4.2837593222       18.0143942341       39.6848957312
  H        -4.8918569686       16.6142545711       40.4751752652
  C        -2.8114461625       16.9446924479       40.8381215082
  H        -3.1224880419       17.0299405543       41.8775815133
  H        -2.3691397616       15.9720727614       40.6820217882
  H        -2.0144629108       17.6344796824       40.5615345209
