352
i=
  H         4.1970636612        0.9206229789       12.4303585404
  C         3.5551329231        1.7860994159       12.4442026771
  H         4.1364761318        2.6885574856       12.5206051568
  C         2.8236950031        1.9381730887       11.1501545834
  C         2.7378436885        1.6511287141       13.7827376892
  C         3.7100677948        2.4221673661        9.9942635307
  H         2.0608018840        2.5996416284       11.4128030526
  H         2.4086377337        1.0108582761       10.9477801435
  H         3.3748687865        1.3069293899       14.6162549832
  H         1.8729887775        0.9666574586       13.6776615354
  H         2.3367790166        2.6676629552       13.9368602903
  C         4.7818053009        1.3291523988        9.6171557589
  H         3.0597293964        2.6991193249        9.1880988364
  H         4.2378406092        3.3636168892       10.2532969706
  C         5.5841661259        1.5909398417        8.3952752625
  H         4.2904006509        0.4002583252        9.6024067399
  H         5.4226408037        1.2722015287       10.5303986035
  C         6.6546966866        2.7131399444        8.5388412831
  H         4.8515318231        1.8308249582        7.5617465805
  H         6.2320658729        0.6864987139        7.9968652548
  C         7.9368056124        2.0901556271        8.9631840623
  H         6.6833427750        3.2308506651        7.5532585798
  H         6.1176243398        3.3108888333        9.2869972423
  C         9.0977605221        3.0748443834        9.1184758402
  H         8.3199323182        1.3619637401        8.1594994783
  H         7.7668337779        1.4057266189        9.8365646368
  C         8.6169098394        4.3228841217        9.8641135865
  C         9.3939783637        3.7517778613        7.8904188220
  C        10.2674580545        2.3822556888        9.7850287825
  C         8.7549047450        5.4106652384        9.0472555430
  C         8.2527800026        4.6869328263       11.1529980447
  C         9.2026827769        5.0957260317        7.7977620954
  C         9.7748715618        3.2164889317        6.7135770126
  H        10.0052878167        2.1109715711       10.7876252998
  H        10.5444434964        1.4202062041        9.2745854166
  C        11.4940940579        3.3208981318        9.9213086728
  S         8.2925872387        6.8951830049        9.7822700691
  C         7.9690199276        6.0100581689       11.2518006827
  H         8.3832975463        3.9326795613       11.9247417668
  C         9.4860378817        5.7219697081        6.6015342675
  H         9.8391563099        2.1581072815        6.7858807582
  C        10.0526438845        3.7542222964        5.5260883068
  H        11.1202818603        4.1673854509       10.4576244951
  H        11.8599765094        3.6962510844        8.8891164831
  C        12.6562669322        2.7181368032       10.7794188851
  C         7.5743270853        6.7082421053       12.4774081504
  C         9.9234801066        5.1222299574        5.4394571731
  H         9.2994531833        6.7347437702        6.5573988456
  C        10.4772628783        3.4140241440        4.2863390007
  H        13.4598273927        3.4005104461       10.4960787339
  H        13.0028762028        1.6770000992       10.6111052325
  C        12.3352423556        3.0215023491       12.2728901633
  C         7.4834263207        8.0968033309       12.7014733698
  C         7.2647273054        5.8118549425       13.6464624222
  C        10.2332607531        5.8053088542        4.1496492966
  C        10.5889564128        4.4600979846        3.3686733867
  S        10.7522754677        1.8939688889        3.5533263424
  H        12.8802656913        3.9850387099       12.5538235097
  H        11.2467925210        3.2860265030       12.4614451574
  C        12.7499961697        1.9391809634       13.2879765845
  N         7.6355093299        9.0651795430       11.7358244255
  C         7.1090742096        8.5987049458       13.9304054904
  C         6.8979412180        6.3218668968       14.8191226704
  H         7.3687829514        4.6880921353       13.6670086732
  C        11.4776922597        6.7283166193        4.2676041328
  C         9.1320769424        6.6248476091        3.4600307187
  C        11.0103100758        4.0403759225        2.0779968872
  C        11.0959261136        2.6460007959        2.0414982876
  H        13.8561869605        1.8284931838       13.4057124127
  H        12.3514044283        0.9823763943       13.0704532474
  C        12.1426877328        2.3198136741       14.6793252252
  S         7.5575670723       10.4423329091       12.4356999879
  N         7.0257129890        9.9898402596       13.9352761736
  C         6.8417680970        7.7599421357       15.0214554233
  H         6.6972834834        5.6372847272       15.6598991901
  H        11.1592226050        7.5917212816        4.8472707943
  H        11.6830659899        7.1799143415        3.2962416013
  C        12.7163842942        6.0035870813        4.8566711920
  H         8.8204729125        7.5091898311        4.0962157381
  H         9.4492964366        7.1694414914        2.5496555006
  C         7.9342523858        5.7844861851        3.1332772661
  H        11.2697199109        4.7972297506        1.3070289422
  C        11.4913651496        1.8470663534        0.8166202402
  H        12.0972754702        3.3808404821       14.8155441915
  H        11.1629674852        1.8589612032       14.5059211314
  C        12.6576512374        1.4323042914       15.7907877221
  C         6.5696351837        8.3443964801       16.2794447588
  H        12.5979529869        5.7233724286        5.9005232458
  H        12.8704189657        5.1276452265        4.1649643491
  C        14.0238598936        6.7494440070        4.9027546332
  H         7.4985160827        5.3082730712        4.0306241633
  H         8.3559215819        5.0212916440        2.4551102477
  C         6.8091604685        6.3959157926        2.4396069571
  C        11.5661785728        0.4499448940        0.6503985463
  C        11.6794715551        2.6065957235       -0.4616077199
  H        13.7352840956        1.1705911781       15.6331898303
  H        12.2121979658        0.4569159028       15.8563603662
  C        12.2410593767        1.9144142006       17.1606317073
  H         6.4150488078        9.3287431939       16.1790525076
  C         6.2456190386        7.9640467061       17.5097597932
  H        14.0510108975        7.4898858493        5.6665912048
  H        14.1811362605        7.3614820461        4.0186161444
  C        15.1401372930        5.7609597670        5.0650649109
  H         6.5296562633        7.3243104155        2.9452750261
  H         7.1209528707        6.8058596356        1.4850705764
  C         5.6466625608        5.3942838274        2.2947461070
  N        11.1860106462       -0.4562105287        1.6100661627
  C        11.8424181013       -0.1510470831       -0.5353674009
  C        11.9953007669        1.9458987003       -1.6487299276
  H        11.4257603364        3.6451886524       -0.4855633679
  H        12.1846421612        3.0552751996       17.2065650428
  H        13.0348554071        1.5388990978       17.8708912392
  H        11.2816533050        1.5139931842       17.5391453430
  S         6.0992244539        6.3363999320       18.0124707261
  C         6.1187923263        9.0275632143       18.4940251076
  H        14.9983374489        5.0652636752        5.9028276221
  H        15.4394440726        5.1428429104        4.1778866284
  C        16.4317125490        6.4143590079        5.5628594986
  H         5.3649622810        5.0339290765        3.3003720588
  H         5.9529205378        4.5520078079        1.7324555025
  C         4.4840601646        6.0661025758        1.5984135391
  S        11.4413339656       -1.9771680856        1.0560829059
  N        11.8860528392       -1.5442218044       -0.4041077439
  C        12.1213193427        0.4644282746       -1.7214928543
  H        12.1894767437        2.5250633295       -2.5152855905
  C         5.8469579937        7.0696421813       19.5464369707
  N         5.7863035591        8.4338803781       19.6405142093
  O         6.1900736786       10.2100583858       18.2353422978
  H        17.0374447522        6.5588762662        4.6658489896
  H        16.1965873478        7.3859796707        5.8838009433
  C        17.0593719868        5.6550209363        6.6685172844
  H         4.7068846937        6.6256815114        0.6877940960
  H         3.7006465855        5.4658484136        1.2779988106
  C         3.8557210148        7.0766533241        2.5469187679
  C        12.4627208431       -0.2268431931       -2.8500700912
  S         5.6755166457        6.2321218041       21.0663948394
  C         5.8114812119        9.3098742614       20.8484573915
  H        16.3918660861        5.7272500974        7.5741976012
  H        17.1315275541        4.6028606045        6.3949207268
  C        18.4699305213        6.1770635817        7.1832021863
  H         4.5604250952        7.3869335044        3.3589081487
  H         2.9048927784        6.6408039525        2.8753270271
  C         3.4605067784        8.3357755651        1.9086404449
  H        12.0733725159       -1.2028708117       -2.8790740095
  C        12.9579691057        0.1025156347       -4.0988657685
  H         4.9687455912        9.0968770382       21.4997862916
  H         5.5996683391       10.3045003325       20.5195872051
  C         7.0572875615        9.2323472579       21.6793732888
  H        18.8212890089        5.7543317131        8.0888649771
  H        18.4608245599        7.2071055558        7.2942833149
  C        19.5012968401        5.8423689820        6.0679107059
  H         2.7586112291        8.1329517518        1.1073230109
  H         2.9603236070        8.9452653718        2.6123211120
  C         4.5984085310        9.1099951818        1.3408777371
  S        13.4500796644        1.6213864456       -4.5934414266
  C        12.9936800056       -0.9478472542       -5.1275171851
  H         7.9680745304        9.4297552083       21.1063468129
  H         7.1965994756        8.2564953930       22.1108026637
  H         7.0674276458        9.9186977289       22.5169526765
  H        20.4175326055        5.3884362522        6.4926530514
  H        19.1920626928        5.2577015880        5.2484109577
  H        19.8505948527        6.7223070739        5.5093339808
  H         5.5242270481        8.9455598959        1.8773989397
  H         4.9610563154        9.0439037405        0.3541914501
  H         4.4007064791       10.1283827191        1.6091037850
  C        13.8535260112        0.8191142250       -6.1381065191
  N        13.5064408588       -0.4654123344       -6.2169211320
  O        12.5532992235       -2.1176877923       -5.0215489678
  S        14.4734930130        1.6389392985       -7.5236046662
  C        13.3654939498       -1.1548489607       -7.4958158494
  H        13.4177895271       -2.2958442228       -7.4803209001
  H        14.2429606411       -1.0407694330       -8.1356232087
  C        12.1004955079       -0.7075544269       -8.2279936269
  H        11.3730719869       -0.4173606247       -7.4528572600
  H        11.6502292386       -1.4448933816       -8.8909058046
  H        12.2983346758        0.1433344196       -8.9479525938
  H        -3.2961557062       14.3462155667       16.4712328122
  C        -2.8692770068       13.3395537762       16.3125240557
  H        -3.6778796066       12.6337189965       16.5804056077
  C        -1.7046321780       13.0754635907       17.2624199407
  C        -2.4608581849       13.0795713336       14.8703197644
  C        -1.8564754608       13.7097882259       18.6272063245
  H        -1.5489330632       12.0454911752       17.4034702924
  H        -0.8654604306       13.5861597181       16.8147686929
  H        -3.2831374052       13.1040282631       14.2149248745
  H        -1.8301055495       13.8385843570       14.5213560632
  H        -1.8699680136       12.1643780007       14.7219956012
  C        -1.8434388111       12.6117574479       19.7426874705
  H        -2.7720391431       14.2613932582       18.6394409056
  H        -1.1818704253       14.4919081601       18.9340785527
  C        -2.4466503062       13.0833980886       21.0352060528
  H        -2.3969873971       11.7678620679       19.4246259905
  H        -0.7875811097       12.4363538029       19.9958543141
  C        -1.4902634199       12.7092603271       22.1829225945
  H        -3.4281264708       12.5219361216       21.1254204540
  H        -2.5895075572       14.1607103627       20.9930205304
  C        -0.2857244418       13.5225779512       22.5318515976
  H        -2.0816032292       12.5726214440       23.1164680761
  H        -1.1039742050       11.7111639164       21.9796250642
  C         0.8439259240       12.7029997579       23.1352617765
  H         0.0685321794       14.0602671412       21.6184572630
  H        -0.6668666929       14.3080194828       23.1915100741
  C         1.1649633369       11.3186037089       22.5032357685
  C         0.4660953975       12.0250549977       24.3712683205
  C         2.1106401870       13.5989696995       23.3098811020
  C         0.9674686143       10.2251544952       23.2894580541
  C         1.6976000333       10.9023635348       21.2665977598
  C         0.4888884625       10.7011532437       24.5326349127
  C        -0.0394064320       12.6648804660       25.5395381320
  H         2.1368216371       14.2243161265       22.4094031678
  H         1.9341517488       14.3611023454       24.0546230916
  C         3.4047931867       12.8483135740       23.5067048168
  S         1.2793099646        8.6671565667       22.6083628448
  C         1.8229686204        9.5315561284       21.1917863132
  H         1.9690140985       11.7140237316       20.5810522818
  C         0.0480400671       10.0791892921       25.6270229996
  H         0.0911182408       13.6292746401       25.5933194578
  C        -0.4159967639       11.9804974659       26.6560355538
  H         3.6926945693       12.2284136282       22.6576360329
  H         3.2082416866       12.2850457708       24.4606273051
  C         4.5377255305       13.8241010158       23.8664238751
  C         2.2178353846        8.8528961173       19.9517123393
  C        -0.4018319574       10.6462344369       26.7821065666
  H         0.4058907605        9.0351506192       25.6710879372
  C        -0.8253621815       12.3984166330       27.9221969254
  H         5.2698430402       13.4116931548       24.6068179349
  H         3.9926046588       14.5010128987       24.4718219668
  C         5.1441516483       14.5155415174       22.6589616303
  C         2.3131388719        7.4279249107       19.7214215615
  C         2.6132107041        9.6243282993       18.7548228143
  C        -0.8014122569        9.9692783055       28.0293903568
  C        -1.0298860958       11.3186415284       28.7398094488
  S        -1.0570219133       13.9554337454       28.6791217675
  H         5.8017883786       15.2600281723       23.0594809391
  H         4.3785416848       15.0270967325       22.1854572138
  C         5.8266383161       13.5049436136       21.7007127983
  N         2.1654468704        6.4573934251       20.7143334928
  C         2.6603082753        6.8564835365       18.4984625153
  C         2.9982795563        9.0554986117       17.5659545827
  H         2.7741997921       10.7146134014       18.8297195525
  C         0.3250094593        9.0176680216       28.5358200572
  C        -2.1246202226        9.2652319663       27.8816579326
  C        -1.5556244189       11.6972269121       29.9863733269
  C        -1.4695577895       13.0679494411       30.1148507573
  H         6.8187372666       13.9257209466       21.5526704851
  H         5.9506537127       12.5704587954       22.3543960481
  C         4.9898414109       13.3616387548       20.4492311338
  S         2.3319994414        5.0179695166       19.9704270266
  N         2.7112121194        5.4793518388       18.5143864602
  C         2.8922942215        7.5951178771       17.3098251351
  H         3.3574106212        9.7075603380       16.7860966330
  H         0.8957797996        8.4791422189       27.7405721403
  H         0.1463382363        8.3615955958       29.3772048173
  C         1.4822158184        9.8546748228       28.9874248068
  H        -1.9146685648        8.3604526612       27.2875794336
  H        -2.6776730772        8.9337493160       28.8100014271
  C        -3.2577236734       10.0655439778       27.1732406206
  H        -1.8808198130       10.9012495115       30.6824072318
  C        -1.6959669003       13.8694926586       31.3982266285
  H         4.0414513016       13.8685824688       20.6164317558
  H         4.6820931732       12.2847115883       20.1927041430
  C         5.6600314622       13.7225570009       19.1285808802
  C         3.1627526827        6.8144285851       16.1505985896
  H         1.7951873449       10.6206468498       28.2577169081
  H         1.1411111583       10.4109858050       29.8541460378
  C         2.6804216219        8.9810958015       29.3100408193
  H        -2.8852253160       10.3463488886       26.2230640146
  H        -3.3928138195       11.0074283458       27.6200251167
  C        -4.5831613061        9.3311352561       27.0818811013
  C        -1.7928209640       15.2698487293       31.5533658752
  C        -1.8481991226       13.1552772386       32.6713964930
  H         5.0661709516       13.3547459273       18.3513814392
  H         5.6446097238       14.7790007330       19.0070329053
  C         7.1473881864       13.2291999915       19.0168678949
  H         3.1293345836        5.7650058364       16.1958547095
  C         3.5756183119        7.2511243554       14.8967790668
  H         3.1154021549        8.9326388642       28.3077735133
  H         2.3186115489        7.9977489222       29.7284707511
  C         3.6920174916        9.6686702391       30.2176141801
  H        -4.3742605225        8.3118535706       26.8436971433
  H        -5.0812363644        9.3687110964       28.0348363069
  C        -5.5549462009        9.9698019922       26.0619444391
  N        -1.4446037213       16.1855626348       30.5574239212
  C        -2.0459574722       15.8717320482       32.7828560485
  C        -2.1798094961       13.7050324749       33.8976479363
  H        -1.7717685615       12.1228783134       32.6918416832
  H         7.4691422368       13.1303180936       17.9893670267
  H         7.8665514148       13.8558552445       19.5778168518
  H         7.1853364709       12.2058262408       19.4385491371
  S         3.6787689561        8.9770900647       14.4038144770
  C         3.7343846589        6.2430059572       13.8314423493
  H         3.7782403178       10.6957495835       29.9537570432
  H         3.3384322920        9.5853090389       31.2234223646
  C         5.1342019261        9.1120584984       30.2780365152
  H        -5.1899015709        9.6326646158       25.0896910087
  H        -5.3910211498       11.0013046926       26.1102157021
  C        -6.9659053194        9.5658311014       26.4645224760
  S        -1.7078313299       17.6918961388       31.1709403490
  N        -1.9656035696       17.2689131685       32.6648289891
  C        -2.3073672593       15.1847126606       33.9789228614
  H        -2.4276286714       13.0999605188       34.6960964570
  C         3.9898293501        8.3240910919       12.8431266173
  N         4.0819832022        6.9468446798       12.7227562783
  O         3.6339842778        4.9743254124       13.9219033225
  H         5.7541841317        9.9532605843       30.6385420101
  H         5.5381067457        8.7700122576       29.2692605665
  C         5.2319815528        7.9464054005       31.3276136185
  H        -6.9538808058        8.4803866260       26.7411776210
  H        -7.1172409155       10.1693438634       27.3570522030
  C        -8.0067139285        9.8616426175       25.4874475954
  C        -2.5328512675       15.8899838531       35.2115435955
  S         4.3248767400        9.1806174564       11.3388184334
  C         4.0732296024        6.2978860524       11.3825423860
  H         5.7935382664        8.2712317950       32.1649491502
  H         4.2601240117        7.5029391397       31.6561144580
  C         5.9043892606        6.7767501041       30.6766567858
  H        -7.7353864370        9.5527895246       24.5738903001
  H        -8.1850399888       10.8882669130       25.4477915463
  C        -9.2533515244        9.1259897970       25.8157313688
  H        -2.3960263837       16.9543335489       35.0757129312
  C        -3.0125237596       15.4914854021       36.4715953819
  H         4.7247034956        6.7308669241       10.6759070216
  H         4.4406387369        5.2273397875       11.4790920053
  C         2.5995320686        6.2867929857       10.8544203197
  H         6.8380672658        6.9263263850       30.0754624218
  H         5.1153972791        6.4401057180       30.0585109557
  C         6.0706028636        5.6546227283       31.7007848684
  H        -9.7577850833        8.8586195393       24.9615293903
  H        -8.9917374756        8.3503568992       26.4321523362
  C       -10.1504783502       10.0282212626       26.6166323961
  S        -3.4233937446       13.9704122970       37.0309729662
  C        -3.0172267382       16.4839533483       37.5501616824
  H         2.4581861857        5.5069165104       10.0819793364
  H         1.9466982833        6.1346979169       11.7114408935
  H         2.3071073882        7.2164487032       10.4219823288
  H         6.5961250899        6.0963338502       32.5140181101
  H         6.7036108571        4.8509412265       31.3197565022
  H         5.1475434386        5.2200663884       32.0714126414
  H       -11.0712430334        9.5254793443       26.8980343790
  H       -10.1061439593       11.0267246295       26.2324474237
  H        -9.7453998260       10.1190189607       27.6181488122
  C        -3.8089463946       14.6782928346       38.5690924853
  N        -3.5534568413       16.0247347460       38.6994312387
  O        -2.7231179301       17.6072734298       37.3496619517
  S        -4.6191745397       13.8424125102       39.9550693060
  C        -3.6786579494       16.8845753816       39.8606268309
  H        -3.7267550699       17.8628784141       39.5193498337
  H        -4.5482598936       16.5318144229       40.4656691876
  C        -2.4134184096       16.6625885055       40.7100822107
  H        -2.3379393552       15.5996499501       40.9548892541
  H        -1.5520821902       16.9121113157       40.0375423679
  H        -2.3364574265       17.2501457445       41.6106965023
