352
i=
  H         5.0431553893        1.8127521436       13.1253746865
  C         4.1371728963        2.4275642973       13.1973679047
  H         4.5555850846        3.4296132536       13.4464362616
  C         3.4079055384        2.6376056802       11.8887100357
  C         3.2872048751        1.9757258986       14.3368058445
  C         4.2874718193        2.8583224598       10.6009678069
  H         2.7875257292        3.5508529369       12.0641416716
  H         2.7633147806        1.8176423137       11.8093221601
  H         2.9747823174        0.9496186553       14.1874770563
  H         2.3921111026        2.5677704588       14.4123994593
  H         3.7482786894        2.0955422909       15.3434486125
  C         4.8238502891        1.5069606706        9.9940492709
  H         3.9005538283        3.5545399082        9.8083398940
  H         5.1491658209        3.3677686245       10.9717757373
  C         5.5728193352        1.6377181011        8.6680939360
  H         4.0015893173        0.8428114046        9.8162069376
  H         5.4058954976        1.0053418713       10.7356916596
  C         6.8626394266        2.4135822135        8.8796383761
  H         5.1164503956        2.3089354231        7.9051179015
  H         5.7564452361        0.6375857532        8.2238257415
  C         8.1029012373        1.6274871916        9.3393879782
  H         7.0178752304        2.8221387617        7.9090659483
  H         6.6414658126        3.2504351195        9.4379960646
  C         9.3343781626        2.5773018493        9.5620718602
  H         8.3582805174        0.9305586795        8.5281333929
  H         7.7548484659        1.0852136656       10.1769629490
  C         8.8966459496        3.8598475950       10.2255136838
  C         9.7249946531        3.2346681021        8.2929955345
  C        10.5330593507        1.8242181733       10.2618778666
  C         9.1385792221        4.9622662735        9.4139916858
  C         8.2344629957        4.1889572451       11.4599320666
  C         9.6742364471        4.5864877739        8.1902493852
  C        10.2391057643        2.6085432196        7.1289259555
  H        10.0831996624        1.2742573857       11.0974634035
  H        11.0313188325        1.0626045559        9.6116027041
  C        11.6332489901        2.7468759167       10.8371773274
  S         8.7180253635        6.4344457041       10.1942882073
  C         8.0955101967        5.5683682827       11.5587757628
  H         8.0007789328        3.4844004261       12.2100687695
  C        10.1156425717        5.2107381266        7.0655813329
  H        10.2479421145        1.5246638885        7.0788177162
  C        10.6389721300        3.2712721636        6.0262994818
  H        11.1840820996        3.2960795716       11.6953227851
  H        11.7339135885        3.6188819043       10.1750421411
  C        12.9610955413        2.1028163816       11.1026704805
  C         7.5281703116        6.2029523656       12.7884363420
  C        10.6652170636        4.6092151524        5.9061606001
  H         9.9576316655        6.2584155455        7.1008437414
  C        11.1059445255        2.8941427624        4.7944576668
  H        13.8498488689        2.7625529279       10.9068935261
  H        13.1792482752        1.0962694915       10.6201955747
  C        12.8919861090        1.5892479437       12.5113080798
  C         7.5198547559        7.6328625195       12.9856175075
  C         7.1194391532        5.4055075514       13.9629187123
  C        11.0428078527        5.3483174643        4.6152816720
  C        11.2657560808        3.9996355265        3.9244548244
  S        11.3252722760        1.3458613284        4.0874892936
  H        12.0615898173        0.9528559654       12.7980122180
  H        13.7441188525        0.8849791499       12.5778869857
  C        13.2234897652        2.6206318464       13.5781412329
  N         8.0272432301        8.5949746763       12.0676366172
  C         7.2990404183        8.2181385484       14.2377541299
  C         6.8021028421        6.0303445907       15.1361746073
  H         6.9458190035        4.3635064855       13.9240074368
  C        12.3262010938        6.2241451244        4.7654893230
  C         9.8106542721        6.1415153271        4.0335153172
  C        11.6377455275        3.5189683685        2.6878710850
  C        11.6985667794        2.1041754907        2.6072757382
  H        13.7865207051        3.4384348406       13.2080377831
  H        13.9408232345        2.0773200880       14.1916811467
  C        11.9538693684        2.9306985927       14.3281442030
  S         7.8894725134       10.1023339254       12.7057893378
  N         7.3953072679        9.6449046262       14.1968260107
  C         6.9277494654        7.5211200865       15.3829233881
  H         6.3830467077        5.4354479407       15.9494668333
  H        12.2537928279        6.9697726081        5.4989328330
  H        12.4744350400        6.8125545714        3.8703100415
  C        13.5609413059        5.4087263905        5.0324505180
  H         9.3334243287        6.6837539363        4.8781384852
  H        10.0562311137        6.8672564466        3.2733674086
  C         8.7185419659        5.2472212470        3.4737253381
  H        11.6747219486        4.2623579491        1.9214813504
  C        12.0339291335        1.3619236613        1.3684636324
  H        12.0795731811        3.9177325785       14.7868760227
  H        11.0933640600        2.9350823530       13.6915178908
  C        11.7851241799        1.9479932173       15.4660002767
  C         6.6415441424        8.2825627198       16.5261609602
  H        13.3569180744        4.7032911529        5.7523768897
  H        14.0265514030        4.9644522422        4.2244840935
  C        14.6641189502        6.2457354851        5.6475911316
  H         8.4510048114        4.4871304755        4.2255018093
  H         9.0341227310        4.5586181546        2.6783777002
  C         7.4030131503        5.9246253444        3.0789365630
  C        12.1392855901       -0.0512241062        1.2625297063
  C        12.1885598172        2.1184345983        0.1032475789
  H        11.8198687653        0.8942182476       14.9872933619
  H        10.7809733545        1.9567676879       15.8579086075
  C        12.7224374912        2.3083694191       16.6684074057
  H         6.4438343875        9.3467236602       16.3995840335
  C         6.4810571579        7.9933671980       17.8509178224
  H        14.2808288373        6.6609188825        6.5501004608
  H        14.9539134720        7.0281597337        5.0277014889
  C        15.9750295714        5.5018126836        6.0312843781
  H         6.9539988575        6.4250947183        3.9469580653
  H         7.7121002079        6.7061267851        2.3590984217
  C         6.3442169356        4.9565245739        2.4052126047
  N        11.8504512267       -0.9832157075        2.2779702514
  C        12.4019459707       -0.7088039855        0.0607288963
  C        12.5424979108        1.4945001384       -1.0746648336
  H        12.0311800029        3.1419890226        0.1256433193
  H        12.0055771811        2.7242382445       17.3805950714
  H        13.5244442509        3.0366086886       16.6070102965
  H        13.1777800599        1.3758193083       17.0645840206
  S         6.5107268077        6.4425445505       18.4972120821
  C         6.2052100799        9.0640943958       18.8931170462
  H        15.5104003580        4.5305246311        6.3428680186
  H        16.5876053012        5.3364330824        5.1236247940
  C        16.7973412881        6.0958046756        7.1533858498
  H         6.1666677193        4.1963260043        3.0488173595
  H         6.7609707333        4.6146929308        1.4773620212
  C         5.0012681748        5.6445653198        2.2233360279
  S        11.9785588219       -2.4638810367        1.6406879139
  N        12.4494983839       -2.1174780778        0.1758557338
  C        12.6872367475        0.0188309255       -1.1191361235
  H        12.7730890867        2.0568523294       -1.9942773741
  C         6.1623624832        7.1631419345       20.0831385395
  N         6.0931958154        8.5003667396       20.1435906824
  O         6.2180000532       10.2825073782       18.5768159052
  H        17.1986784199        7.0197674063        6.7212124298
  H        16.0734581725        6.3839353476        7.9874250325
  C        17.8415749617        5.1472197328        7.7683878497
  H         4.1937808115        4.9594560416        2.3226547639
  H         4.7969497443        6.3030922038        3.0389578390
  C         5.0696516415        6.5513956437        1.0067990628
  C        13.0418005247       -0.7222892458       -2.3128083850
  S         5.9448965586        6.2246170407       21.5424938949
  C         6.0683243355        9.3060243594       21.3629777762
  H        17.4357088644        4.7951837044        8.6992748927
  H        17.9124711831        4.3006013458        7.0568738297
  C        19.1141912082        5.8835182457        7.8539044629
  H         4.6193597150        5.9215291820        0.2475824895
  H         6.0940402600        6.5831522490        0.4951834887
  C         4.4959352695        7.9515918631        1.0677154518
  H        12.7536463779       -1.7369886166       -2.3070342046
  C        13.3897366939       -0.3663186628       -3.5653349657
  H         5.6749113356        8.6920636664       22.1860104049
  H         5.2787991128       10.0558718119       21.2366057486
  C         7.4353753171        9.8821890594       21.5543917739
  H        19.6654968318        5.4267082446        8.6609924323
  H        19.0106373013        6.9487676913        7.9722761379
  C        20.0688685402        5.6253400163        6.6859564403
  H         4.3130449019        8.2972888923        0.0162364578
  H         3.5406131788        7.9823689394        1.6243969544
  C         5.4766662919        8.8188435107        1.8592789477
  S        13.5580074552        1.2532720624       -4.2166153972
  C        13.6350606201       -1.4485288261       -4.5017880896
  H         8.1014309852        9.1022280014       21.3981484194
  H         7.7470856550       10.2734515147       22.5432603750
  H         7.5934108505       10.6998784433       20.8727296722
  H        19.9131827004        6.2394690776        5.8385031405
  H        21.0741856310        5.7324963916        6.9942731565
  H        20.0381006937        4.6005576570        6.3322690288
  H         5.4038443665        8.6389706792        2.9014424323
  H         6.4571802047        8.5270536150        1.6194766484
  H         5.3396549340        9.8591700380        1.5976080174
  C        14.0861438934        0.4434788996       -5.6346993599
  N        14.1345345418       -0.8974044282       -5.6117872004
  O        13.4145209919       -2.6190658265       -4.3583863514
  S        14.7041869696        1.2072023200       -7.0792454358
  C        14.1693314575       -1.7134634086       -6.8431630505
  H        14.2330518355       -2.8077995001       -6.6063550386
  H        15.1329688772       -1.6153805684       -7.3848380140
  C        12.8983551806       -1.5114876170       -7.6484516181
  H        13.0074584099       -2.0126424609       -8.5823572879
  H        12.4252513241       -0.5506399432       -7.9074845957
  H        12.2190924488       -1.9979670453       -6.9999006468
  H        -2.9192657052       15.4555635874       16.1959708665
  C        -2.9781446935       14.3517456936       16.1734820336
  H        -3.9181672660       14.0589288269       16.3988854666
  C        -2.0048358284       13.8237870187       17.1617705297
  C        -2.6148776842       13.7148111174       14.8140241274
  C        -2.0265899087       14.5329208122       18.5404627094
  H        -2.2617101363       12.7447070612       17.2746991830
  H        -1.0015740702       13.9347449958       16.7567640508
  H        -1.6335618841       14.0438868124       14.4074762686
  H        -2.6570858281       12.6488759889       14.8223390391
  H        -3.4062196510       14.0636717424       14.1832285800
  C        -1.7700180072       13.4691242826       19.5989399302
  H        -3.0185859460       14.8111480991       18.7406621667
  H        -1.4208348271       15.4014294211       18.6634530287
  C        -2.1013252294       13.8950387022       20.9985443059
  H        -2.2531882878       12.5172647478       19.3577938105
  H        -0.6908609940       13.2566857564       19.6629616007
  C        -1.1983925637       13.2948392738       22.1105604959
  H        -3.1132756360       13.5789864888       21.1271811796
  H        -2.0470530463       14.9802911845       21.0634739915
  C         0.0706999358       14.1599755397       22.5431459723
  H        -1.8327297547       13.1270348588       22.9532339835
  H        -0.9902475709       12.2265085945       21.8769056666
  C         1.2290933541       13.2741477929       23.2108679572
  H         0.4378049161       14.6718915089       21.6818973245
  H        -0.1357570831       14.8567520543       23.2668714834
  C         1.6025927962       12.0122957448       22.4644306095
  C         0.7968759391       12.5298879521       24.4345645862
  C         2.5589045103       14.2006982218       23.3575572526
  C         1.3514372602       10.8752740977       23.2141549031
  C         2.1699691134       11.6777355884       21.2413081060
  C         0.8503258406       11.1788917616       24.4632924104
  C         0.3445092764       13.1442251063       25.6304401638
  H         2.8140299221       14.6368682410       22.3916766965
  H         2.3468389264       14.9681099123       24.0666606509
  C         3.8330284998       13.5564003037       23.9048411521
  S         1.7210070726        9.4162278871       22.3745663225
  C         2.2475264961       10.3375892809       21.0614350007
  H         2.3800675604       12.5072336212       20.6166119432
  C         0.4723388365       10.5133502758       25.6214860592
  H         0.4414041529       14.2148501211       25.7377852251
  C        -0.0430233957       12.4785975874       26.7721736830
  H         4.0311318988       12.6732617026       23.3186003967
  H         3.6699512037       13.1575551611       24.9087462560
  C         5.1142260737       14.4904593912       23.9709340772
  C         2.6654799186        9.5855609528       19.8323203434
  C        -0.0064694428       11.1170771428       26.8330970850
  H         0.7447175716        9.4178754828       25.6724521842
  C        -0.5000770180       12.8138395670       28.0010138447
  H         5.9562442107       13.9918263320       24.4787349174
  H         4.9271592642       15.4073844309       24.5449216379
  C         5.6858903584       14.8800263945       22.6040625517
  C         2.7032351832        8.1333424663       19.6290336658
  C         3.0335646454       10.2770828900       18.5799969880
  C        -0.5090767999       10.3989867588       28.0787140297
  C        -0.7192779733       11.7207236415       28.8343120573
  S        -0.8066896200       14.3541352947       28.7345430243
  H         6.2196078083       15.7985854910       22.6696709456
  H         4.9394815261       14.9704984896       21.7882242744
  C         6.6221025434       13.7565219320       22.0241237013
  N         2.5142655525        7.1718331714       20.5997780610
  C         2.9907199038        7.5173817298       18.4260545182
  C         3.2793220936        9.6820706516       17.3704348432
  H         3.0372801236       11.3629459337       18.6676621369
  C         0.6533163203        9.5227904568       28.6886149883
  C        -1.8246542386        9.6313525992       27.8566281367
  C        -1.2686551395       12.1562040824       30.0964924246
  C        -1.2825874228       13.5123145067       30.2079837314
  H         7.6067370001       14.1203634942       22.2489825206
  H         6.5297283999       12.7816783384       22.5010701612
  C         6.3657412801       13.4730457665       20.5433736976
  S         2.6397296510        5.6735806092       19.9422869312
  N         3.0603127226        6.1165844552       18.5022419613
  C         3.3166104535        8.1827720858       17.2600200460
  H         3.3910921975       10.2330652559       16.5092551641
  H         1.1965152529        9.0544191894       27.8799921886
  H         0.3490715488        8.6481718581       29.2001115133
  C         1.6710401318       10.2877539815       29.6586227811
  H        -1.7042137342        8.8728996802       27.0900301490
  H        -2.1895633894        9.1597104124       28.8040309124
  C        -2.9337047947       10.4850415277       27.2768867738
  H        -1.6004177011       11.4086775297       30.7984073604
  C        -1.5830365462       14.3359819983       31.4588013391
  H         5.6674220436       14.1826083054       20.1477571384
  H         5.9082934598       12.5261765789       20.3310778518
  C         7.6074980513       13.4409030815       19.6882064431
  C         3.3848604039        7.4829286453       16.0595738076
  H         2.1062086278       11.1420845921       29.0971118631
  H         1.1455208438       10.6385574635       30.5594544506
  C         2.8072871338        9.3738405049       30.1591747756
  H        -2.4597432219       10.8163666866       26.3908325044
  H        -3.1887050130       11.3124210803       27.9550277144
  C        -4.1616762395        9.7607156766       26.8330494778
  C        -1.7070782777       15.6975104411       31.5669811407
  C        -1.8141368478       13.5321988394       32.7410923410
  H         8.2392851247       14.3472223460       19.7980946288
  H         8.1944904163       12.5699526885       19.9657192433
  C         7.2960572777       13.4025736126       18.1926582416
  H         3.2649277807        6.4582031912       16.0744251782
  C         3.7675783632        7.8605624129       14.7915940286
  H         3.1268381939        8.5417029073       29.4734208739
  H         2.3354308617        8.8342967003       30.9674176357
  C         4.0324626658       10.1507591591       30.6877473145
  H        -3.8796106511        9.0440037322       26.0667848114
  H        -4.5630967551        9.1389235414       27.6515150119
  C        -5.3718698623       10.6036002087       26.4041734832
  N        -1.5676449618       16.5796273284       30.5693515619
  C        -1.9240519682       16.3041369101       32.7985359796
  C        -2.1371690477       14.1315138103       33.9418188035
  H        -1.8891728974       12.4516796783       32.6680028736
  H         6.2913091507       13.2052152034       18.0667400303
  H         7.5341216503       14.3576677028       17.7105671256
  H         7.7781787636       12.6133240124       17.6033267008
  S         4.1820305309        9.4896665750       14.4011854960
  C         3.8531560018        6.8520103357       13.8283008579
  H         4.0478488091       11.2103364014       30.3350147254
  H         3.8456370463       10.2272937396       31.7823102626
  C         5.3872670617        9.5728008070       30.3158056426
  H        -4.9280476764       11.2990908779       25.6702266087
  H        -5.6978206978       11.2035096590       27.2057989361
  C        -6.3914970659        9.7014722319       25.6025293871
  S        -1.3407565805       18.0878422030       31.2076894731
  N        -1.9080882635       17.7191823884       32.6625055695
  C        -2.1168897360       15.6415125286       33.9727228964
  H        -2.3316527927       13.5314238324       34.8479926297
  C         4.4761220444        8.8139493313       12.8117488634
  N         4.1949593095        7.4627689009       12.7208909919
  O         3.3955725833        5.7298014670       13.8780113826
  H         6.2355827760       10.2776062309       30.6792946446
  H         5.3070083822        9.4773577365       29.2513396735
  C         5.5777792649        8.1323385451       30.8072043465
  H        -5.9500049618        9.0639507457       24.8908551819
  H        -6.9991993487        9.0436080112       26.2533771393
  C        -7.3063209630       10.6259408227       24.8397329064
  C        -2.4007215911       16.4127841072       35.1387994708
  S         4.7972608565        9.7959749269       11.3814086005
  C         4.1059739639        6.7491990438       11.4479608501
  H         5.2174964096        8.0657867201       31.8451962995
  H         4.9516388219        7.4673174111       30.1225863193
  C         6.8713503809        7.5165956431       30.6412095756
  H        -6.7696887822       10.9299114401       23.9949895615
  H        -7.4264755619       11.5948451502       25.3691938657
  C        -8.6472869852        9.9188013559       24.4569505017
  H        -2.0059890264       17.3762532441       35.1415885089
  C        -3.1036116906       16.0806875137       36.3205467186
  H         4.8442638391        7.1716791105       10.7821605254
  H         4.2500748041        5.6599111385       11.4993685935
  C         2.7776252781        7.0090842211       10.8498195978
  H         7.6702746681        8.2328291062       30.9783853880
  H         7.0498928399        7.3235200935       29.5926803541
  C         6.9098653456        6.1134652598       31.2987174386
  H        -9.0739558368       10.3585808969       23.5939959093
  H        -8.4712655345        8.9047209596       24.1966388852
  C        -9.6755064563       10.0746524807       25.6164413389
  S        -3.7896330286       14.5517525855       36.7828479683
  C        -3.0848964832       17.1213156322       37.3789332594
  H         2.6322387068        6.3401762267       10.0379506414
  H         2.0146339258        6.7907187591       11.5387282922
  H         2.5420000660        8.0016846198       10.4972329251
  H         7.9302203521        5.6448389223       31.3502971319
  H         6.1796607555        5.4610562935       30.7378767386
  H         6.4519059495        6.0533806096       32.2545198064
  H        -9.6725277101       11.0424004585       26.1572315381
  H        -9.2645753302        9.3599292267       26.3293123981
  H       -10.6450690987        9.6941141157       25.3270377176
  C        -4.0292178506       15.3199263397       38.3609638733
  N        -3.7044797612       16.6360503375       38.4537638568
  O        -2.5829477024       18.2178777407       37.2621769741
  S        -4.9895318532       14.5952011408       39.7773606041
  C        -3.7632819701       17.3457276851       39.7381993579
  H        -4.0801290669       18.3993406216       39.5851179121
  H        -4.5784217685       17.0114136365       40.3383152096
  C        -2.4829627821       17.2593549049       40.3964669360
  H        -2.1380990901       18.2788404561       40.5967547948
  H        -2.6039969637       16.7105589661       41.3069597989
  H        -1.6809279247       16.8323963319       39.7574928038
