352
i=
  H         3.8670092345        3.7546818442       12.6565841356
  C         3.3767679899        2.7867536990       12.6490027840
  H         2.4069207222        2.9672328655       12.2070734810
  C         4.2712702537        2.0356926580       11.7427457607
  C         3.3260618552        2.2234386410       14.0087256273
  C         3.9044563797        2.1673279965       10.2679470894
  H         4.1663796571        0.9896727941       12.0094040652
  H         5.2543773431        2.2797600266       11.9820373578
  H         2.2763157058        2.1587391715       14.2043237729
  H         3.8760329636        2.8899448430       14.6252280395
  H         3.7073311821        1.2259958841       14.1268467077
  C         4.7719848202        1.2473686032        9.4199500312
  H         2.8752021738        1.8816559621        9.9740874418
  H         4.0051211816        3.2195636796        9.9225429052
  C         5.5973541633        1.9453101508        8.3406632777
  H         4.1494979748        0.5183134300        8.9286733566
  H         5.4704654581        0.8259150070       10.0611387188
  C         6.6095987512        2.9005501332        8.9730278719
  H         5.0130853724        2.5271302861        7.6591115261
  H         6.0740333912        1.2808935145        7.6519410597
  C         7.9752171682        2.1442140092        9.3018018526
  H         6.8163127057        3.6157864612        8.1730591182
  H         6.2048197910        3.3219838752        9.8116552346
  C         9.2307607294        3.0736954662        9.4816017051
  H         8.1514749516        1.4347328153        8.5252198274
  H         7.7736092943        1.6038016576       10.2438602545
  C         8.8064389715        4.4685649166       10.0206842628
  C         9.5926058851        3.7341495513        8.2147979030
  C        10.3346429199        2.3904075927       10.3363679707
  C         8.9250392700        5.5258704459        9.1763104092
  C         8.1488346666        4.8491948878       11.2476741045
  C         9.5111864651        5.1006027195        8.0535106129
  C         9.9939990950        3.0734106370        7.0366749499
  H         9.7402210164        1.9485372585       11.0791148016
  H        10.9446730436        1.5249145881        9.9028770010
  C        11.3712828651        3.2900641213       10.8767439651
  S         8.4081894754        6.9640297641        9.8541249670
  C         8.0349063579        6.2107035907       11.3142062583
  H         8.0759084203        4.1244748045       12.0458706492
  C         9.8778438596        5.6679363136        6.9110232409
  H        10.2001645738        2.0864712725        7.0125336199
  C        10.3210704481        3.7288136823        5.8605832664
  H        11.0211448161        4.2156906096       11.2627629459
  H        11.9463407820        3.5032481027        9.9702124509
  C        12.3274421781        2.6008569329       11.9817457799
  C         7.6449940947        6.9378723078       12.5398443585
  C        10.3323807205        5.0474016823        5.7731602032
  H         9.6841722483        6.7634594085        6.9651603773
  C        10.7244694394        3.3306394312        4.5576107677
  H        13.1945013831        3.1843062382       12.0551006557
  H        12.7895676090        1.6233877275       11.6245966682
  C        11.5508882529        2.4987693160       13.3416315840
  C         7.6184023116        8.3813995300       12.7067922206
  C         7.4744257518        6.1730310039       13.7794293694
  C        10.6519637068        5.7902276890        4.4745009708
  C        10.9914230412        4.4199963701        3.7462768523
  S        11.1236402586        1.8245738716        3.8487172668
  H        10.7338083238        3.2053258077       13.4106661710
  H        11.0516126868        1.5052325488       13.3899824284
  C        12.3157630331        2.6549362512       14.6203940821
  N         7.9468533793        9.3121705506       11.6870682144
  C         7.3792309090        8.9828365254       13.9665337411
  C         7.0555285934        6.7777547469       14.9458147454
  H         7.4509903790        5.1217850795       13.7288671451
  C        11.9509586369        6.5731647409        4.6162391536
  C         9.5299724268        6.6261720880        3.7775715467
  C        11.4301353171        3.9596375905        2.4319739143
  C        11.5154841271        2.5929491734        2.3630632785
  H        12.8009797813        3.6249419077       14.7172640698
  H        13.2361676708        2.0305305479       14.6002751842
  C        11.5981933553        2.0823682953       15.7912150835
  S         7.7575493775       10.8136168293       12.3642154904
  N         7.4113585529       10.3920743577       13.8831729538
  C         7.0968105306        8.2844696959       15.1716426093
  H         6.7413245676        6.1846346585       15.7604250968
  H        11.8561846032        7.2537343834        5.4566636863
  H        12.1342364690        7.1654158153        3.7070878170
  C        13.2144942715        5.7455875187        4.8429624570
  H         9.1309851718        7.4584029600        4.3721965240
  H         9.9599792318        7.1356032057        2.9891095309
  C         8.3824971897        5.8619698124        3.2764638115
  H        11.5765063050        4.6068384287        1.5603920751
  C        11.7514231809        1.7675200027        1.1419255587
  H        10.8609405342        2.8234286162       16.0616911555
  H        11.0468184551        1.1480154784       15.6002541646
  C        12.5456248194        2.0762283440       17.0966415315
  C         6.7523905180        8.9458816721       16.4156802941
  H        13.0133627438        5.0720203453        5.6622312390
  H        13.4505434206        5.0841292289        3.9517510831
  C        14.4815802133        6.5713572507        5.1661701474
  H         7.8775853880        5.2884782427        4.0615246602
  H         8.5752288588        5.1952914179        2.4320844892
  C         7.2573026606        6.7428177182        2.9546514848
  C        11.8104129273        0.3542521006        1.1107215611
  C        12.0099659475        2.4665268290       -0.1094097823
  H        13.4184482357        1.4463033273       16.8404457225
  H        12.0600801404        1.6957555096       17.9696525033
  C        13.0264401919        3.5472029006       17.4496130534
  H         6.8044089980        9.9924852319       16.3532582631
  C         6.4417229452        8.4532762262       17.6650353625
  H        14.3242180542        7.6054722746        5.5269864477
  H        15.0694589122        6.5807366453        4.2029686397
  C        15.2552753601        5.8368197340        6.2061767705
  H         6.7984063374        7.1449867478        3.8712969850
  H         7.7591525041        7.5788302914        2.4287706595
  C         6.1704155579        6.0360467035        2.0300794644
  N        11.4939172279       -0.4561976714        2.1334260768
  C        12.0822125710       -0.4007243460       -0.0167314590
  C        12.2259579377        1.7062232139       -1.2491718830
  H        11.8421019663        3.5266547650       -0.1852096704
  H        12.2566710396        4.3011172005       17.6576488744
  H        13.6640822216        3.9960471209       16.6666653917
  H        13.6371553045        3.5175471164       18.3982851522
  S         6.1481094876        6.8531999973       18.1617560244
  C         6.2090207384        9.4865523429       18.7051595663
  H        14.6194147774        5.8051212612        7.1705730474
  H        15.4733765890        4.8269349948        5.7089798713
  C        16.5803030979        6.4472312695        6.6121913411
  H         5.7732459886        5.1917179436        2.5386235576
  H         6.5674756582        5.6602909427        1.0367386575
  C         4.9122225613        6.9024545626        1.8637334360
  S        11.5908798077       -2.0013776575        1.6599364759
  N        11.8622433719       -1.7539537914        0.0927390009
  C        12.2961943362        0.2419201022       -1.2574236028
  H        12.3419685560        2.1980758732       -2.1728776403
  C         6.0800384978        7.5768983381       19.8162858405
  N         5.9654667976        8.9615566813       19.8821465541
  O         6.3752399326       10.6572957650       18.4107386869
  H        17.0933390859        6.9367345807        5.7432351004
  H        16.2658583110        7.2259692902        7.3095906225
  C        17.5895229928        5.4004258777        7.2539639758
  H         4.0021141607        6.4492825518        1.4258468636
  H         4.5368284168        7.2748548553        2.8214901107
  C         5.1426196268        8.0380387613        0.9055292067
  C        12.5937373215       -0.5601866277       -2.3780935867
  S         5.7423585971        6.5376896141       21.2691665891
  C         5.8719908380        9.7082509624       21.1342236262
  H        17.1400357603        4.9034890921        8.1060311787
  H        17.7252007803        4.6446649147        6.4559499097
  C        19.0059064970        5.9973311337        7.6696108209
  H         5.0749128813        7.5632052609       -0.0859939280
  H         6.1275963060        8.4349151015        1.0669512729
  C         4.0969770506        9.1566955929        0.8853786404
  H        12.4313100252       -1.5996722282       -2.2678375240
  C        13.1603247217       -0.2510231802       -3.5964135683
  H         5.1650922953        9.3303814726       21.8760275867
  H         5.4682936258       10.7918460704       20.8504253944
  C         7.2492660049        9.8851076344       21.7552686819
  H        19.5646017570        5.4014226646        8.3962890347
  H        18.8791092002        6.9846743760        8.1114409528
  C        20.0211303722        6.0549989367        6.4556424237
  H         4.1509601767        9.5179289759       -0.1420624942
  H         3.0951777287        8.9412151784        1.1138049904
  C         4.3921437326       10.2145796652        1.9720486186
  S        13.7525098054        1.3541162277       -4.1584393548
  C        13.3558726362       -1.3870259841       -4.5356520270
  H         7.5466455331        9.0313751589       22.3385200904
  H         7.3108387850       10.7662835421       22.3841114986
  H         7.9681327411        9.8727425721       20.9688827266
  H        19.6939908889        6.7752285065        5.7878129134
  H        21.0561439993        6.3268995750        6.7613445248
  H        20.1079578759        5.1237470549        5.8827386938
  H         4.1214119286        9.6775101808        2.9191978396
  H         5.3833543067       10.7032182338        1.9923932940
  H         3.5900550470       10.9174070964        1.9096592164
  C        14.1355856781        0.4638266494       -5.5988415309
  N        13.9440557927       -0.9131223333       -5.6133033409
  O        12.9526366277       -2.5254214717       -4.2808996696
  S        15.0563942242        1.1839329093       -6.9059614538
  C        14.0586708689       -1.7291347887       -6.8090885084
  H        13.9876960702       -2.7356831951       -6.4452081317
  H        15.0104922873       -1.7219952776       -7.4364239768
  C        12.9559153680       -1.3510794117       -7.7656891811
  H        13.2709120933       -0.7472565792       -8.6092609895
  H        11.9595623415       -1.1044777839       -7.4003641618
  H        12.8281700769       -2.3085568594       -8.2676898456
  H        -2.9315074711       15.4282496705       16.4229495225
  C        -2.6287433565       14.3743988036       16.3728692569
  H        -3.5281266302       13.8164262493       16.6771694152
  C        -1.5306764386       14.2268426193       17.4477237445
  C        -2.1696300072       13.9591487793       14.9805519742
  C        -1.8233187810       13.4015256765       18.6767273048
  H        -0.7207644028       13.7251530900       16.9599402799
  H        -1.2086217676       15.2328175465       17.7577172741
  H        -1.2421758361       14.4246543623       14.6234968613
  H        -2.0845984300       12.8811026107       14.8166812370
  H        -2.8675192359       14.3958167223       14.2881781076
  C        -2.0514826020       14.3324269838       19.8265221716
  H        -1.0768893307       12.7452676256       18.9169160456
  H        -2.7129924662       12.8220169668       18.4692695244
  C        -2.2541186446       13.4510127360       21.0749908380
  H        -1.2104097428       14.9651794056       19.9267225712
  H        -2.9451648259       14.9396200934       19.6384297919
  C        -1.0345415867       12.9106898046       21.6859948002
  H        -2.8916844829       12.5454120538       20.8914481590
  H        -2.7803729675       14.1424066201       21.7598032409
  C         0.0380450425       13.8873771061       22.2542874843
  H        -1.3083134463       12.2005671282       22.4860185218
  H        -0.5706268880       12.3415164420       20.9145311065
  C         1.1802486472       13.1602765504       23.0558638166
  H         0.6155326735       14.3029348309       21.3929496015
  H        -0.3041219093       14.6663568698       22.9115297345
  C         1.5098819164       11.8283435005       22.4128668200
  C         0.6668920283       12.4546468423       24.2949099416
  C         2.3791879745       14.0020559660       23.3504666704
  C         1.2143725173       10.7209020196       23.1812745485
  C         1.8668209274       11.3914058228       21.1662996355
  C         0.6473534493       11.1435212232       24.3780802413
  C         0.3172718455       13.0391015249       25.5217449835
  H         2.6545347788       14.5983985573       22.4728083975
  H         2.1766335625       14.8856378910       24.0206574076
  C         3.6800497791       13.3383669859       23.7281182553
  S         1.5668988568        9.2071085620       22.4816431514
  C         2.0360130338        9.9946520760       21.0188129814
  H         2.2213034640       12.1588981419       20.4872201055
  C         0.1806996150       10.5135559275       25.5019526067
  H         0.2570618116       14.1104602385       25.5034566170
  C        -0.0874092200       12.4222802083       26.6697293804
  H         3.9706937353       12.6223350846       23.0080129732
  H         3.4371408606       12.8260281826       24.6572035661
  C         4.8131871691       14.2888285609       24.0799494535
  C         2.4931398531        9.3147893693       19.7622794781
  C        -0.1367769229       11.0410371231       26.7680302080
  H         0.2269085206        9.4753520492       25.4376679085
  C        -0.5633484410       12.8512347568       27.8799866467
  H         5.4257754540       13.7530823548       24.7236988661
  H         4.3870990602       15.1164854954       24.6487144928
  C         5.6068560983       14.8465796321       22.8412461235
  C         2.4107292011        7.9602090290       19.4574712825
  C         2.9027565729       10.1798096106       18.5949529958
  C        -0.4707960499       10.3697744329       28.0651457340
  C        -0.7565306568       11.7660582751       28.7299675364
  S        -0.9364147057       14.3560025893       28.5752583209
  H         6.3064733712       15.6103485994       23.1234703628
  H         4.8403265692       15.2463347785       22.1285338905
  C         6.3740686325       13.7338387887       22.0694788690
  N         2.0014040033        7.0809620507       20.4333253326
  C         2.6394476660        7.4397006693       18.2254646362
  C         3.0663261146        9.6124911716       17.3413920854
  H         3.0095878576       11.2441961696       18.6868228573
  C         0.6331832169        9.5918707249       28.7640939969
  C        -1.7555425382        9.4906335878       27.8810832550
  C        -1.1485253579       12.1386852611       29.9978514630
  C        -1.2094611129       13.5419630128       30.0986744321
  H         7.4611220122       13.6703116999       22.2752812404
  H         5.9035065949       12.7836231864       22.3240330760
  C         6.2261047090       13.9681807997       20.5919136984
  S         1.9485920808        5.5659545639       19.7604576282
  N         2.3223843900        6.0649648880       18.2227272266
  C         3.0024172058        8.1622587405       17.1112098108
  H         3.3247879460       10.3787362234       16.6683375447
  H         0.8857236443        8.8224392635       28.0119503081
  H         0.2990800236        9.0446451704       29.7032666972
  C         1.8979254119       10.4466122679       29.1725190001
  H        -1.4763873256        8.7311119347       27.2097529320
  H        -2.0583688761        8.9759641252       28.8235579353
  C        -2.9660580987       10.2598224485       27.3489974202
  H        -1.3213134188       11.3404561629       30.7514587234
  C        -1.6369819741       14.2739687037       31.3380285855
  H         5.9429931922       15.0126006565       20.2760220785
  H         5.3456897982       13.4029147992       20.2608104972
  C         7.3946286301       13.6705214105       19.6877665434
  C         3.2994135884        7.5608384175       15.8404140389
  H         2.3038985451       10.8579265274       28.2346452664
  H         1.6645102830       11.3128605365       29.7779000980
  C         2.9610816416        9.5958495083       29.7878060519
  H        -2.6652466012       10.7015715196       26.4135849923
  H        -3.1312929206       11.2588678973       27.9199089065
  C        -4.1815037571        9.3675164739       27.2699589403
  C        -1.7778159876       15.6736684297       31.4572113994
  C        -1.8793481139       13.5353164724       32.6360315130
  H         8.0994369173       14.4470085169       19.8255420917
  H         7.7449172431       12.6729027692       20.0063875300
  C         7.0307828282       13.8065587416       18.2143984988
  H         3.0590629753        6.5510209435       15.8232251702
  C         3.6880041383        8.0110630616       14.6415184741
  H         3.3153921373        8.7693194823       29.1418659738
  H         2.5359885587        9.1083935135       30.6867867293
  C         4.1740229604       10.4755674468       30.0943285276
  H        -3.9226896286        8.5371619755       26.6368400468
  H        -4.3921817626        9.0051827739       28.2376057794
  C        -5.4520012255       10.0696672380       26.7526615309
  N        -1.2677201943       16.5523709762       30.4721538236
  C        -2.1613858064       16.3529739592       32.5708530858
  C        -2.2912061793       14.1988978730       33.7839607060
  H        -1.6416855219       12.4462319642       32.6128443408
  H         7.7469305412       13.2560258276       17.6156675249
  H         6.0987433325       13.3455087382       18.0208410630
  H         7.0357986676       14.8479837740       17.9381933400
  S         3.8171346378        9.6830597463       14.1821738837
  C         3.7606753416        7.0334574350       13.5704652627
  H         4.1650115483       11.3120985893       29.4795437855
  H         4.0930349630       10.8281665199       31.1633699797
  C         5.4777184857        9.6840913260       29.9073946581
  H        -5.6647691814       11.0077687377       27.2067822803
  H        -6.2951325693        9.5079616863       27.0497503208
  C        -5.5578739396       10.1469553319       25.2689422336
  S        -1.3897858246       18.0696574635       30.9643403951
  N        -2.0197694474       17.7791528230       32.4502796664
  C        -2.4501895673       15.6961903597       33.7992566846
  H        -2.4495506732       13.5750938390       34.6627102902
  C         4.1707641412        9.0534050046       12.6291607413
  N         4.0833148075        7.6841410470       12.4851160907
  O         3.6308562717        5.8090733952       13.5899140452
  H         6.2634018109       10.5002883431       30.0191501105
  H         5.4223778496        9.4022081564       28.8662056190
  C         5.6448504451        8.5111524034       30.9274123660
  H        -4.6920780291       10.6500604489       24.9989313540
  H        -5.5898105134        9.1115093009       24.8077785222
  C        -6.8041665677       10.9413527111       24.8228466755
  C        -2.7405005687       16.5410317343       34.9107333355
  S         4.3397840559       10.0698881335       11.1251152855
  C         3.9766080009        7.0314795957       11.1906590391
  H         5.9970460662        8.9324149101       31.8493589686
  H         4.7270924485        8.0135448468       31.1698509465
  C         6.6957354199        7.4719692627       30.4367611386
  H        -6.8566240220       10.9065435948       23.7307515691
  H        -6.6191852267       11.9665213925       25.1465241478
  C        -8.0626178890       10.2755549639       25.5081192900
  H        -2.3453929389       17.5485250591       34.7621928585
  C        -3.2448372298       16.2295476754       36.1894247376
  H         4.6869484823        7.3421142928       10.4554507165
  H         4.2420196976        5.9755555997       11.2198917632
  C         2.5469366920        7.1190430831       10.7636143324
  H         7.7492994689        7.8592143776       30.4435604018
  H         6.5464339083        7.2833969026       29.3368202401
  C         6.5006462568        6.1876126268       31.2112741858
  H        -8.9024768970       10.1998264390       24.8225883941
  H        -7.8308952027        9.2242246266       25.7762887958
  C        -8.5713391158       11.1449396008       26.6734061714
  S        -3.7937056731       14.7259756517       36.8029040389
  C        -3.2441100421       17.3307257686       37.1985108838
  H         2.1843542462        6.2793506482       10.1674703705
  H         1.8368079210        7.1883503309       11.6152094817
  H         2.5327853597        7.9374618572       10.0330478000
  H         5.4434948142        5.9453497860       31.3869442708
  H         6.8573539250        6.2435197296       32.2692569765
  H         7.0595255658        5.3059060424       30.7557561072
  H        -8.6250910667       12.2013777424       26.4466937563
  H        -8.0320911905       11.0528896068       27.6688372269
  H        -9.6504274280       10.9578808807       26.9195356229
  C        -4.0595195412       15.5429023982       38.3235699260
  N        -3.8071541314       16.8495014292       38.3075154388
  O        -2.8527915921       18.4635804624       36.9633759063
  S        -4.9960319218       14.9148316725       39.6857251483
  C        -3.8015732302       17.5892694679       39.6154387343
  H        -3.6043016468       18.6676068648       39.3696145616
  H        -4.7305133654       17.4875092166       40.1033668356
  C        -2.6236345204       17.0471455639       40.4322502687
  H        -2.9293186343       16.6985907910       41.4007998162
  H        -1.9737816209       16.2822631497       39.9823443922
  H        -1.9470945450       17.8018483957       40.5769897683
