352
i=
  H         3.8669349409        1.0123576724       12.5735918116
  C         3.1247396427        1.8380270800       12.3807895086
  H         3.5689785664        2.8169873154       12.2651863871
  C         2.3752693118        1.5005932944       11.0639232378
  C         2.2412436541        1.9733557527       13.6195148804
  C         3.1183314993        1.7797582796        9.7078793490
  H         1.5080081349        2.1630301210       11.0443332489
  H         2.0742380967        0.4475876985       11.0082417343
  H         1.9231081020        1.0298442107       13.9640142369
  H         1.3323130100        2.5563209243       13.2738260222
  H         2.6454510564        2.5551978585       14.4749362701
  C         4.2943021164        0.7892898593        9.4244447646
  H         2.4343060149        1.6589055913        8.8251412142
  H         3.5161698928        2.7725194660        9.8316813929
  C         5.2901021130        1.2732542345        8.3485695308
  H         3.8911053556       -0.1941547129        9.1630524755
  H         4.8292194856        0.5945198696       10.3254562299
  C         6.3295012763        2.3030625663        8.6695097278
  H         4.6132948165        1.7056987703        7.6491770190
  H         5.7526431188        0.3866989687        7.8803327333
  C         7.7406051084        1.7534902130        8.9504184352
  H         6.4509181353        3.0500893808        7.8371435946
  H         5.9187953831        2.9415738089        9.4768653894
  C         8.9345387052        2.7028976773        9.2244983857
  H         7.9775368877        1.0572775723        8.2515486488
  H         7.7320692579        1.0860750248        9.8411786755
  C         8.6014209463        4.0054327475        9.9366552497
  C         9.3103516264        3.4416865709        8.0186691103
  C        10.1398458184        1.9228038654        9.8398622695
  C         8.8224696963        5.1483083881        9.1805642579
  C         8.2352786088        4.3666250338       11.2894093635
  C         9.3527068582        4.7774717667        7.9844785607
  C         9.7150933420        2.7923957225        6.8542535849
  H         9.8540432973        1.3944137404       10.7109300907
  H        10.3930652944        1.1020184617        9.1407456825
  C        11.4405168392        2.6147317810       10.2307469774
  S         8.4974495470        6.6639967974        9.9430935620
  C         8.0846916855        5.7674067791       11.4052413460
  H         8.0437241580        3.5537222031       11.9116654075
  C         9.7513926442        5.4726072072        6.8625585573
  H         9.6956536832        1.7394762933        6.8950418021
  C        10.1546793648        3.4435741708        5.7156676730
  H        11.3214442275        3.6760413245       10.4001230430
  H        12.1766148100        2.5477762490        9.3965045787
  C        12.1787286658        1.9785319097       11.4639734430
  C         7.6047983098        6.4048405171       12.6484213015
  C        10.2010377523        4.8083431333        5.6757870434
  H         9.6143971222        6.5556597729        6.8513938202
  C        10.6133639407        3.1032272256        4.4361703345
  H        13.1557443033        2.3528808313       11.4904717324
  H        12.3324053555        0.8674042272       11.3322132644
  C        11.4633233903        2.3117544582       12.7564186831
  C         7.4687863053        7.8085400261       12.9414215495
  C         7.2536791987        5.5312751531       13.8529819808
  C        10.6644568251        5.5122830769        4.4349771142
  C        10.9593223832        4.2411887250        3.6883571842
  S        10.8437997055        1.6157717555        3.5825066826
  H        11.4250949792        3.3679003577       12.8285877870
  H        10.3767538189        1.9603996748       12.9291564171
  C        12.3941059455        1.8504668300       13.8794199578
  N         7.8020474249        8.8350027547       12.0571893954
  C         7.1372767590        8.3095823660       14.2285640206
  C         6.9951709532        6.0346333264       15.1026366964
  H         7.4518916452        4.4293249006       13.8638739641
  C        11.8847661788        6.3758927517        4.6693489069
  C         9.4881719816        6.3056906573        3.8535448691
  C        11.4965764708        3.8450113791        2.3846125616
  C        11.4946312681        2.4893584207        2.2766264867
  H        13.3469955110        2.3388662652       13.6611064429
  H        12.4398520554        0.8085945576       14.0477672067
  C        11.9428387824        2.3978542665       15.2350962439
  S         7.6681055645       10.2377386261       12.8442549513
  N         7.2449391103        9.6921368887       14.2691301183
  C         6.8738745879        7.4847854527       15.3284700167
  H         6.8651382308        5.3451454870       15.9519812153
  H        11.5962136445        7.0178001468        5.5532268748
  H        12.0535533092        6.9702981085        3.8206618525
  C        13.1247154167        5.5769830602        4.9901759405
  H         9.3447142471        7.1454068104        4.5117796627
  H         9.9521150778        6.7863762965        2.9617387393
  C         8.2665391219        5.5322791356        3.5650048875
  H        11.8375166451        4.5971256659        1.6876143494
  C        11.9746405487        1.8180537040        1.0300913861
  H        11.8011652456        3.4393309456       15.1333578431
  H        10.9571537166        2.0167645257       15.4900142691
  C        12.9484005703        1.9796615209       16.3828420369
  C         6.4978885233        8.1096596359       16.5733855960
  H        12.8351446035        4.7084531475        5.6250043032
  H        13.4129679929        5.1286854238        4.0783648992
  C        14.1948616411        6.3386383922        5.7856111366
  H         7.9727400080        4.9967807116        4.4382598347
  H         8.4734163354        4.6854643947        2.8553311175
  C         7.0551349404        6.4545184467        3.1440219207
  C        12.0517020401        0.4217717546        0.8117191500
  C        12.2142821698        2.6724060143       -0.1919836076
  H        13.9967298229        2.3449355839       16.2114596947
  H        13.0602955792        0.9214997513       16.4356694695
  C        12.5031608028        2.4704001183       17.7555174933
  H         6.7223889172        9.1510645444       16.6078304239
  C         6.2029581372        7.5697719847       17.8286989299
  H        13.7705563945        6.8160342222        6.6557144985
  H        14.4526814765        7.1425405113        5.1681666273
  C        15.3130980305        5.3865294448        6.2124293690
  H         7.0107834419        7.2868226648        3.8632068118
  H         7.1933521439        6.9442006457        2.1522173254
  C         5.7500407286        5.5700953558        3.1571932036
  N        11.8016523985       -0.5207068811        1.8026657517
  C        12.2999490817       -0.1922225803       -0.3707924611
  C        12.5305955818        2.0390673364       -1.4093474840
  H        12.2560306429        3.7213678539       -0.1015268555
  H        12.1797432158        3.4939662855       17.8500745126
  H        13.3010311703        2.3065226799       18.4412600003
  H        11.6743115344        1.8184308546       17.9417846591
  S         5.8608061532        5.9586883074       18.2532380964
  C         5.9518852837        8.5419318316       18.8404907075
  H        14.9111955377        4.5871427278        6.9097785589
  H        15.6202222992        4.8348128210        5.3805360492
  C        16.4903255098        6.2368888925        6.8283054680
  H         5.5071509354        5.4435578703        4.2122585560
  H         5.9379549792        4.4916744334        2.8065049324
  C         4.6594546340        6.1804298064        2.3194885088
  S        11.6372334756       -2.0143346425        1.1404764635
  N        12.0922658136       -1.5417094212       -0.3678557377
  C        12.6242222749        0.5445958363       -1.5514446123
  H        12.9254664357        2.6332056886       -2.2168933294
  C         5.6373648262        6.6039019022       19.9447179461
  N         5.5754983326        7.9331659238       20.0127033291
  O         5.9106662122        9.7322729044       18.6328267435
  H        16.6608722284        7.0218577651        5.9987561724
  H        16.1874988542        6.8552043023        7.6744494533
  C        17.6877881750        5.4118021840        7.2241855690
  H         5.2283249580        6.4076227918        1.3797711253
  H         3.8469156099        5.4666922759        2.2078881402
  C         3.8948227985        7.5045054136        2.7340967917
  C        12.9563202229       -0.1160146263       -2.7965610513
  S         5.2144783174        5.6421084873       21.2987332091
  C         5.4509891651        8.7957822698       21.2077019053
  H        17.7967212388        5.2911403436        8.3039259579
  H        17.6717585354        4.4586732286        6.6513614909
  C        18.9915589477        6.1816843001        6.8977041875
  H         4.0442090585        7.6725325134        3.8158182287
  H         2.8135604955        7.4543374585        2.5708301770
  C         4.3303841932        8.6923275348        1.8223510114
  H        12.6591086961       -1.1310233494       -2.7463758601
  C        13.4535070883        0.2443756854       -4.0159001613
  H         4.7686926405        8.3875133489       21.9924360912
  H         5.0203581469        9.8301287231       20.9934589627
  C         6.8241144497        8.9018337978       21.8868883141
  H        19.8158095237        6.0468405637        7.5879500290
  H        18.7514980863        7.1947233080        6.9767839167
  C        19.4907229379        5.9438177439        5.5271908295
  H         5.2086298578        9.0932054904        2.2605307758
  H         4.6214200006        8.3539580437        0.8432802002
  C         3.3126657203        9.8167199744        1.6730449751
  S        13.7818012875        1.8399408006       -4.5538260983
  C        13.5835651167       -0.7899245197       -5.0792114647
  H         7.5299403564        8.4983404618       21.1321740441
  H         6.7721628266        8.3371729565       22.7825118642
  H         7.2271367047        9.8838426765       22.0012015350
  H        18.8655435496        6.4327494211        4.8369575091
  H        20.5818515068        6.2634310993        5.4694435816
  H        19.5419445089        4.8675326527        5.2758332804
  H         3.8001263264       10.6671442906        1.2481420159
  H         2.4951514142        9.4593781800        1.0134794704
  H         2.7969866839       10.1179004091        2.5873048768
  C        14.1406687532        1.1406274287       -6.1428088243
  N        14.1055570048       -0.1616244018       -6.1749990810
  O        13.2729717541       -1.9679181267       -4.8275439907
  S        14.6456374909        2.0073210326       -7.5666865741
  C        14.3060885499       -0.9271023036       -7.4599365874
  H        14.7183355361       -1.8913123282       -7.1217694067
  H        15.1533456108       -0.5876180321       -8.0968600373
  C        13.0035594909       -1.2157365807       -8.1629008329
  H        12.8542404467       -0.4773141723       -9.0008641741
  H        12.2365540372       -0.9624743201       -7.4354212424
  H        12.8741666484       -2.1952351257       -8.6854185595
  H        -4.3401987027       14.4876772755       16.7102567981
  C        -3.7114557533       13.6413785641       16.6364728699
  H        -4.3184716693       12.7491918460       16.8099554979
  C        -2.6713663045       13.6241066051       17.7605778424
  C        -3.1033959558       13.4385319672       15.2332173151
  C        -3.1707376505       13.2560990086       19.0588101450
  H        -1.8823202434       12.9858244432       17.3316255211
  H        -2.2564242066       14.6301966252       17.8021047336
  H        -3.9170579924       13.6564125507       14.4955791094
  H        -2.3529485744       14.2044077172       15.1632632371
  H        -2.7983659106       12.4182268103       15.1359697908
  C        -2.0847016635       12.9394825117       20.0427026673
  H        -3.6258268902       12.2317103365       18.9877388584
  H        -3.8974600122       13.8749577566       19.4779109960
  C        -2.5819951899       13.0164564927       21.4779814812
  H        -1.5970988450       11.9031134263       19.8789250541
  H        -1.3176807444       13.6569319576       19.8567179073
  C        -1.5664293756       12.5208307651       22.5008194021
  H        -3.4296901243       12.3929250372       21.4148137387
  H        -2.9940169003       14.0760301683       21.5981737351
  C        -0.3190032445       13.3782880487       22.5148838926
  H        -1.9793797766       12.6340851011       23.4902721966
  H        -1.3233310664       11.4496825829       22.4818821038
  C         0.7674126206       12.6792475677       23.3561672116
  H         0.1499878233       13.3529172841       21.5169438147
  H        -0.4838592481       14.4159840932       22.8146837732
  C         1.0980867711       11.3051224995       22.7307451897
  C         0.3420423732       11.9864026955       24.6421301916
  C         1.9352640338       13.6768449721       23.5189464363
  C         0.9322843350       10.2306963967       23.5667920929
  C         1.4394882290       10.9134739236       21.4086303713
  C         0.4025161635       10.6388540006       24.8299129600
  C        -0.1399392069       12.6348076330       25.7713543104
  H         2.1900014068       14.2172938525       22.5739559618
  H         1.6338874165       14.4218286996       24.2766016932
  C         3.1929584228       13.0267661713       24.0937159668
  S         1.2574967808        8.6848622380       22.8134554318
  C         1.6970627367        9.5341408562       21.3728085869
  H         1.4356609844       11.6443872864       20.5321340304
  C        -0.0685907238        9.9815736122       25.8843924387
  H        -0.0296971524       13.6780056736       25.7882339448
  C        -0.5659646762       11.9881391847       26.8872961503
  H         3.5216395095       12.3262532160       23.3359902904
  H         2.9951717904       12.5855074292       25.0066310761
  C         4.3192943705       14.0341897154       24.2326157514
  C         2.2107676078        8.8678307794       20.0641957748
  C        -0.4948855930       10.6673980794       27.0525054749
  H        -0.0417377950        8.9268767281       25.9457493282
  C        -1.0879585581       12.3920166777       28.1024821070
  H         5.0826376530       13.4475862419       24.6728686731
  H         4.1789727800       14.7827725609       24.9961615315
  C         4.9397505521       14.6970482051       22.9656563813
  C         2.3054428835        7.5033400563       19.7793804724
  C         2.6638149729        9.7128719807       18.9161776858
  C        -1.0345262438        9.9750455529       28.2917343017
  C        -1.3054800242       11.3348057731       28.9431629300
  S        -1.4048284388       13.9463132358       28.8321468549
  H         5.4816079117       15.5813223010       23.2658311349
  H         4.1807675894       15.0769108831       22.2539896402
  C         6.0833747676       13.8696249227       22.3527605756
  N         2.0729130597        6.5554214983       20.7642551974
  C         2.5576685181        6.9516629667       18.5420560611
  C         2.9140087363        9.2021031663       17.6312910461
  H         2.8524378733       10.7032048150       19.0929479574
  C         0.1383052762        9.2394135923       29.0854042836
  C        -2.2510518086        9.1365455839       28.0804823251
  C        -1.7488813588       11.8112557069       30.2063368305
  C        -1.6664559476       13.1934306010       30.3233352515
  H         7.0007959211       14.4485373424       22.0070916576
  H         6.3776001615       13.1490726458       23.0651845604
  C         5.5518573110       13.0179327813       21.2055764789
  S         2.0000557046        5.0745520758       20.1175694913
  N         2.4567095746        5.5422898806       18.5701794121
  C         2.8243247970        7.7284409830       17.3892094426
  H         3.2154749285        9.9454036498       16.8549408405
  H         0.4620765256        8.2531029931       28.7227529057
  H        -0.1915694621        8.9850190515       30.0786775631
  C         1.4136242574       10.0364982034       29.2793173183
  H        -1.8993765644        8.3754045733       27.3430104534
  H        -2.5706087075        8.8191124857       29.1208973409
  C        -3.4301512471        9.9169344250       27.5061359559
  H        -1.9743837283       11.0200030314       30.9023602094
  C        -1.9182673690       14.0109823712       31.5778167762
  H         4.5628910499       13.2632919132       20.7451753922
  H         5.5127688258       11.9724486558       21.5005437481
  C         6.6097198207       13.0035863766       20.1080157832
  C         3.0632081179        7.1149610124       16.1218979746
  H         1.6535344422       10.4688173576       28.3166118081
  H         1.2181271641       10.9369388237       29.8703535145
  C         2.6156961885        9.1902106425       29.7435437384
  H        -3.0710350279       10.4680365086       26.6871060948
  H        -3.8083247822       10.6482573810       28.2502305215
  C        -4.6403017035        9.1005189058       27.0763320787
  C        -1.9812595622       15.4262908049       31.6794324375
  C        -2.0883875834       13.2507695259       32.8186266651
  H         6.2470961023       12.5485963694       19.2435055820
  H         6.8967438644       13.9840244577       19.7124242459
  C         7.9351719672       12.3929399337       20.5569052791
  H         2.9972181920        6.0543169690       16.1694071764
  C         3.4451840818        7.5062671173       14.9235857562
  H         2.8378747992        8.4313561884       28.9831879317
  H         2.3157522278        8.6412834228       30.6243891758
  C         3.9223718850       10.0156190646       29.9381293553
  H        -4.2984803650        8.4106778616       26.3303991011
  H        -4.9847481409        8.6110308397       28.0131337340
  C        -5.6604649617       10.0508234332       26.6398496877
  N        -1.7383200567       16.2791008066       30.6179836714
  C        -2.2928563620       16.1033090608       32.8772363923
  C        -2.4777310848       13.8998546080       34.0256847486
  H        -1.9143784842       12.1831657513       32.8946615904
  H         7.8463602229       11.3364238592       20.2351138768
  H         8.7196398476       12.9097300840       20.0564937717
  H         8.2077976501       12.3786477071       21.6230517880
  S         3.6474604702        9.0671359564       14.2852974366
  C         3.8142093385        6.4043672027       13.9868534005
  H         4.0337782471       10.7248475801       29.0776217884
  H         3.8403452484       10.8130500424       30.6791747988
  C         5.2300341753        9.2588180345       30.1242609925
  H        -5.2090617264       10.7824586252       25.9518232407
  H        -6.0945545280       10.5128751417       27.5534967582
  C        -6.7540421249        9.3591475508       25.8978865333
  S        -1.8338943723       17.7747931887       31.2048443534
  N        -2.1780653634       17.4577557074       32.8055932857
  C        -2.6352740604       15.4285500117       34.1051178942
  H        -2.5616394113       13.3582406675       34.8822864662
  C         4.1526001973        8.3204587305       12.7336303314
  N         4.2066057072        6.9853794920       12.8374666691
  O         3.8131912924        5.1860376699       14.1765338572
  H         6.0371137722        9.9376215065       30.3240665343
  H         5.5361524405        8.7212180959       29.1217463386
  C         5.0851317102        8.2171387718       31.2633893668
  H        -6.3074378606        8.6779604259       25.2080038139
  H        -7.4007786643        8.8325240594       26.5948686914
  C        -7.6523452624       10.2858228850       25.1471639375
  C        -2.9694374381       16.1512712805       35.2919519834
  S         4.3868641532        8.9907717601       11.0822445907
  C         4.3046604903        6.1819555028       11.6301818775
  H         5.8854054604        8.5485423562       31.9764214321
  H         4.0648066418        8.2603026340       31.7282004991
  C         5.2470484491        6.8477423362       30.8361053812
  H        -7.1215320501       10.5400185778       24.1621897575
  H        -7.7405173374       11.2752391164       25.5641681481
  C        -8.9991078584        9.6421200759       24.8541338500
  H        -2.8921141771       17.2239003555       35.2129691212
  C        -3.5913353825       15.8368100539       36.4365499236
  H         5.1459186492        6.4681760732       10.9738174332
  H         4.5700738090        5.0970877244       11.7684354311
  C         2.9421794291        6.1617040305       10.9207865115
  H         4.6167810474        6.8356886567       29.9822851062
  H         4.8131303463        6.1992585071       31.5669985293
  C         6.6611956847        6.3308559031       30.4590040371
  H        -9.5185945510       10.0740239482       23.9858170374
  H        -8.8042769508        8.6579696793       24.4483782280
  C        -9.9313269983        9.6185433403       26.0796884817
  S        -4.0648759928       14.2243921553       36.9136617216
  C        -3.7576650230       16.9223419974       37.4501323939
  H         2.0991384361        6.4327839708       11.5633503057
  H         2.8893294424        6.7386555007        9.9577307702
  H         2.6071321393        5.1659190614       10.7030419210
  H         6.6835808800        5.1946068963       30.3980103436
  H         7.4408740977        6.8125871548       31.0728540034
  H         6.9409147953        6.6868810754       29.4482458812
  H        -9.7711999905        8.7185861757       26.6349961193
  H       -10.9312149631        9.5769757516       25.7288080012
  H        -9.7476927219       10.3847145987       26.7587827626
  C        -4.5746865867       14.9601454866       38.4305517456
  N        -4.3828491657       16.3371146177       38.5009409798
  O        -3.3131947061       18.1046981589       37.4114681368
  S        -5.1379634279       13.9285342523       39.7290032195
  C        -4.4237808671       17.0585732675       39.7364712816
  H        -4.6011743061       18.1308691687       39.4760912542
  H        -5.2339842664       16.7272515777       40.4306918419
  C        -3.1301447820       16.9783182699       40.5984400486
  H        -3.3449710592       16.5158225974       41.6085453487
  H        -2.3532645842       16.3987546800       40.1261739481
  H        -2.7206206306       17.9478128950       40.8767669458
