352
i=
  H         5.3518113375        2.0021724509       13.3177965291
  C         4.6612956419        2.8014336216       13.3590087235
  H         5.2459514502        3.6313544066       13.0194080489
  C         3.5223221518        2.7404255720       12.3782683297
  C         4.2519308716        3.2127070133       14.8039575795
  C         4.0142030721        3.0390246301       10.9477581655
  H         2.7681074146        3.4647319518       12.5264233207
  H         2.9550718265        1.7870972739       12.3639674381
  H         4.3398172411        2.3985490706       15.5009189926
  H         3.1991861294        3.5577368822       14.7411365782
  H         4.8085668224        4.0858551353       15.2126291466
  C         4.6375218134        1.8065140359       10.3121676865
  H         3.2118107176        3.4533555475       10.3776775541
  H         4.7254937802        3.8595380484       10.8814205705
  C         5.1629645716        2.0669507396        8.8855696716
  H         3.7682809603        1.2516613919       10.0871911732
  H         5.4104133469        1.2891434003       10.9004553647
  C         6.4280565374        2.8821648538        8.7424351238
  H         4.2692972944        2.3384363533        8.2983395359
  H         5.4270959459        1.1022547712        8.4378912561
  C         7.6696278565        2.1388185302        9.3254506828
  H         6.6243750657        3.1946675350        7.6947224488
  H         6.2627084139        3.7926670284        9.3053383442
  C         9.0389725213        2.9337565357        9.3188084614
  H         7.7936531624        1.1589352355        8.8245921835
  H         7.4603411164        1.9727634838       10.3691497204
  C         8.7206664685        4.2764949973       10.0305923630
  C         9.3455949307        3.6280048532        8.0253145057
  C        10.2438021023        2.2172749825        9.9731742775
  C         8.7745266515        5.3334568989        9.1455194434
  C         8.2178958020        4.6409761872       11.2799626836
  C         9.2279266713        4.9837805676        7.8980036830
  C         9.8718446312        3.0884479551        6.8999286108
  H         9.9289138979        1.6894949943       10.8817346905
  H        10.6534744197        1.4563831464        9.3083151080
  C        11.4010306523        3.1126640719       10.2337974591
  S         8.2372458680        6.8404172675        9.8312705229
  C         7.9294582416        5.9933266701       11.3335006639
  H         8.2654279584        3.9301693036       12.0801231966
  C         9.5255336578        5.6257390429        6.7387393904
  H        10.0274242661        2.0076467213        6.9289621227
  C        10.2349755461        3.6760896882        5.6914239687
  H        11.0540259481        4.0872968805       10.5586757222
  H        11.8682732117        3.4154905597        9.2517823880
  C        12.5363280023        2.5323756751       11.0990649330
  C         7.6231428097        6.6379467297       12.6631417941
  C        10.0266316191        5.0158059320        5.5369077430
  H         9.4045542123        6.7112151626        6.8470652300
  C        10.7388778701        3.3113902769        4.4551768100
  H        13.4917709066        2.8051658690       10.6614269707
  H        12.6179534187        1.4808052328       11.1604976285
  C        12.4071473510        3.1428591958       12.5059748612
  C         7.8006942625        8.0607114503       12.9398373737
  C         7.2736797453        5.7482498731       13.8219929576
  C        10.5593663844        5.7732166727        4.3216599233
  C        11.0077205643        4.4001523799        3.6888351778
  S        11.1535456462        1.8337483020        3.7832333313
  H        12.9997437851        4.0939845872       12.6372796481
  H        11.3415787315        3.3841376010       12.6629267940
  C        12.8502887081        2.2184443918       13.6147389170
  N         8.3242803442        9.0247170179       12.0675508065
  C         7.6391719221        8.4918160089       14.2250187343
  C         7.0585181129        6.2489961074       15.1365699397
  H         6.9765464191        4.6809860602       13.7237806982
  C        11.7500182361        6.6886871997        4.6176287429
  C         9.4058998127        6.4793314955        3.5164344868
  C        11.6020167924        4.0135883708        2.5380697202
  C        11.5715681254        2.6338458914        2.4223634295
  H        13.8836955404        1.9684811910       13.6161725291
  H        12.3085425730        1.2574389352       13.4943469780
  C        12.4973463801        2.8155817171       14.9729100179
  S         8.3373150554       10.4799884689       12.8767676822
  N         7.6512736251        9.9166063133       14.2954376390
  C         7.3088061839        7.7062877680       15.3788687092
  H         6.7639260844        5.6352398111       15.9514101984
  H        11.4134591269        7.3590217821        5.4032808148
  H        11.8902017308        7.4761325341        3.8811164945
  C        13.0470949385        5.9743092878        4.9690413692
  H         9.0523774106        7.2340666338        4.2327463136
  H         9.8568860500        7.0690987005        2.6553088096
  C         8.2366140797        5.6518082432        2.9867604036
  H        11.7948525254        4.7554160041        1.8378148359
  C        11.8794331451        1.8932279873        1.1138304162
  H        13.1767111750        3.6705815031       15.1069191659
  H        11.4642472075        3.1120326600       15.0943413434
  C        12.7552101446        1.8427935483       16.1102413030
  C         7.1178370132        8.3086323684       16.7083533797
  H        12.8878313192        5.1620683663        5.5653603353
  H        13.3999285080        5.6455708231        4.0543476798
  C        14.0920224572        6.9526095519        5.6043734905
  H         7.7207577167        5.1706175153        3.7911688693
  H         8.7150264788        4.9540098541        2.2897882870
  C         7.1663457705        6.4932531366        2.2822687378
  C        11.9921925195        0.4934536525        0.9334571698
  C        12.1789874490        2.7029586501       -0.1042214379
  H        13.6004831323        1.1779858041       15.9325969068
  H        11.8352849982        1.3008168681       16.2967820654
  C        13.1653148073        2.6900458068       17.3230324210
  H         7.2956513428        9.3550350068       16.6908058979
  C         6.8180303625        7.8667739182       17.9487733371
  H        13.5304407899        7.6876685191        6.1359086601
  H        14.6308081903        7.4012792392        4.7731284196
  C        15.0236972274        6.1040329129        6.4846101998
  H         6.9633346486        7.4630615409        2.7843584392
  H         7.6792696474        6.7250898564        1.3375307086
  C         5.8369848787        5.8513326529        1.8059654646
  N        11.9145039322       -0.4687946714        1.9760803551
  C        12.2914743376       -0.1032737881       -0.3085328115
  C        12.4677374913        2.1529071508       -1.3510900335
  H        12.1384081777        3.7705207503       -0.0278861578
  H        12.9005410807        2.1758146060       18.2371638698
  H        12.5825554169        3.6202398369       17.4107919973
  H        14.2327262225        3.0250921648       17.3847798973
  S         6.2529165274        6.2952629963       18.4417072633
  C         6.7430915937        8.8555704262       19.0546880183
  H        15.2981875462        6.7586432078        7.3341244291
  H        14.5466999243        5.2822251840        7.0167469791
  C        16.2756997123        5.7087840880        5.6794407872
  H         5.6989452727        4.9661934949        2.3552780198
  H         5.9733374353        5.5019413559        0.8036397262
  C         4.7235070873        6.8664990244        1.8784726813
  S        12.0641083020       -1.9616374386        1.2476661711
  N        12.4000038961       -1.4981900816       -0.2755985758
  C        12.5037395167        0.6401449306       -1.4948585121
  H        12.5281418235        2.8187457411       -2.2449464822
  C         5.9503574556        6.9834718743       20.1136907602
  N         6.2637437747        8.3208360037       20.2028274253
  O         7.0069318452       10.0168733695       18.9684858457
  H        16.1641959317        4.8025740596        5.0871020598
  H        16.5623054106        6.4226366146        4.9120581503
  C        17.5314232834        5.3855452548        6.5570842552
  H         3.8375269354        6.3013724123        1.9272470702
  H         4.8519833895        7.2911054465        2.8875197059
  C         4.8141402696        7.9635521318        0.8355061073
  C        12.7008256637       -0.1819078913       -2.6499277327
  S         5.6164025657        6.1298705665       21.6273538581
  C         6.0066608474        9.1178888880       21.4010210281
  H        17.1538666710        5.1597274688        7.4979048549
  H        18.0137814318        4.4578017114        6.1906237466
  C        18.6444408855        6.4203637369        6.7351441369
  H         4.8118099299        7.4687471902       -0.1222774728
  H         5.7493056156        8.4589347982        0.8135984789
  C         3.7418589391        9.0539320950        1.0990776180
  H        12.5089722288       -1.2700072317       -2.7118573500
  C        13.2102149145        0.1855238559       -3.8952227760
  H         5.1991810601        8.7040862421       22.0366471524
  H         5.6097353180       10.0497915790       21.1169845964
  C         7.2901268601        9.3716280155       22.1401486944
  H        18.6006011639        6.8245060362        7.7421336660
  H        18.3876276802        7.3023844081        6.0653337306
  C        20.0968079560        5.8568642387        6.4692133228
  H         3.8858854446        9.8256089200        0.3495382975
  H         2.7394671108        8.6994298193        0.9866729943
  C         3.7917273844        9.7247042853        2.4841114758
  S        13.9214315900        1.7710793152       -4.3375876083
  C        13.1950148776       -0.7927857519       -5.0505816879
  H         7.2403230535        8.9227730064       23.1473450927
  H         7.3477277710       10.4514229594       22.3839393231
  H         8.2133109299        9.0455619947       21.5619378909
  H        20.4724661775        5.6148891673        7.4282796384
  H        20.0903261183        4.9939240084        5.8341301065
  H        20.8192319065        6.6249517097        6.1092289474
  H         4.8514598076        9.9338895448        2.6905031922
  H         3.1996923074       10.6669339164        2.4727111178
  H         3.2989546722        9.0855184598        3.2703719516
  C        13.9805485468        1.1354775792       -5.9937377300
  N        13.7407111949       -0.1831409986       -6.1308896009
  O        12.8040250798       -1.9636626047       -4.9540164337
  S        14.5913887672        2.1551614874       -7.2937830470
  C        13.7027106701       -0.8575911156       -7.4168686394
  H        13.9375478208       -1.9072031678       -7.1851118831
  H        14.5461298975       -0.5612084297       -8.0216409466
  C        12.3260543300       -0.6637414749       -8.1382980129
  H        11.5325264551       -0.4432748196       -7.4556415796
  H        12.1096541333       -1.5911262838       -8.7064463848
  H        12.3245604954        0.1761246542       -8.7756477548
  H        -2.8144854040       15.5178071325       15.5702266350
  C        -3.0356912539       14.5094263481       16.0219128320
  H        -4.0289323142       14.7251481876       16.4290048804
  C        -1.9550621942       14.2409207567       17.1281869392
  C        -2.9702886095       13.5022462057       14.8001441762
  C        -2.5397022105       13.6884334886       18.5068710649
  H        -1.3330573712       13.4750147712       16.6795550227
  H        -1.3675078756       15.0506270460       17.2720975454
  H        -2.7616781762       12.5144414787       15.2013810398
  H        -3.9191726644       13.6574498243       14.3465208448
  H        -2.2066843500       13.6866232511       14.1295908094
  C        -1.4510324650       13.5884710278       19.5366694204
  H        -2.9964919448       12.6781108538       18.3641844925
  H        -3.2474979394       14.3728856467       18.8477766057
  C        -2.1082278012       13.3115121832       20.9584424015
  H        -0.8747087596       12.7407761201       19.2359568569
  H        -0.7623059261       14.4354374042       19.5956444692
  C        -1.1745694388       12.6082654892       21.9767174671
  H        -2.9104198298       12.6088487412       20.8186826353
  H        -2.4953762615       14.1894856971       21.3703887019
  C        -0.0748588820       13.5626072434       22.4791502735
  H        -1.7521660365       12.1346127794       22.8157738290
  H        -0.8260880244       11.6863088399       21.4776593851
  C         1.2142085197       13.0056841213       23.1336673249
  H         0.2156627555       14.2061809568       21.6229918210
  H        -0.5869532336       14.2798997376       23.1437781529
  C         1.6550447100       11.7254861505       22.4454430842
  C         0.9420601659       12.2747123238       24.4242351391
  C         2.3610781834       14.0094114750       23.3796035913
  C         1.4039426756       10.6026256332       23.2040463398
  C         2.1777359407       11.4120754882       21.1572661394
  C         0.9600002988       10.9178088500       24.4550965689
  C         0.4452492227       12.8334792048       25.6178074821
  H         2.5431325685       14.5136070983       22.4483754994
  H         2.0834253702       14.7036696295       24.1298394928
  C         3.7316338425       13.4233520813       23.7648853852
  S         1.8285350423        9.1448667000       22.3729042823
  C         2.3371405264       10.0473998102       20.9643735691
  H         2.3464508726       12.1603812617       20.4044546665
  C         0.6577458102       10.2343440696       25.6216624631
  H         0.3936139986       13.9643175976       25.7173299526
  C         0.1096845917       12.1220012509       26.7253662573
  H         4.0428513383       12.5882810821       23.0408741101
  H         3.7106526876       12.9614626734       24.7704466732
  C         4.8888893691       14.4189678823       23.7152891842
  C         2.8924184039        9.4050672615       19.6975024581
  C         0.2043656738       10.7750078938       26.8089277253
  H         0.6257365388        9.1591381629       25.6153640394
  C        -0.2436697763       12.4934497344       27.9686029563
  H         5.7886147387       14.0620403507       24.3684806896
  H         4.4535069815       15.3549316329       24.1383523655
  C         5.3372893989       14.6092085162       22.1834519029
  C         2.8274966382        8.0397771732       19.3467776368
  C         3.3150609513       10.2510091785       18.5862600811
  C        -0.2289575592       10.0688632788       28.0165320910
  C        -0.4950436150       11.4005392398       28.7119948215
  S        -0.5012409680       13.9779081455       28.7520345123
  H         5.4977550737       15.7214269277       22.0568440458
  H         4.5525290265       14.4233566367       21.4480121821
  C         6.5764771558       13.7950083364       21.7176941973
  N         2.3972825242        7.0595884886       20.2527670156
  C         3.1547274900        7.5249893543       18.1163426530
  C         3.5269021008        9.7694691808       17.3044726705
  H         3.3685042538       11.2843406738       18.7568505611
  C         0.9716271966        9.3230380549       28.7160949154
  C        -1.5139771326        9.2227262597       27.7061866271
  C        -1.0465639978       11.7560864183       29.9232686075
  C        -0.9651585909       13.1002245739       30.1627777468
  H         7.3163245059       14.5538420665       21.7265765175
  H         6.9269259133       13.0833813766       22.5200285273
  C         6.3881277893       12.9852042211       20.4167581712
  S         2.5472330932        5.6306022021       19.6022726315
  N         3.0226256523        6.1205721319       18.1395391936
  C         3.4229466195        8.2977997961       16.9965776308
  H         3.7623127306       10.5122396486       16.5809826193
  H         1.1660013261        8.4782068083       28.0122927754
  H         0.5640749897        8.9253587877       29.6461428872
  C         2.2110249022       10.1612994765       29.0402249709
  H        -1.1750607188        8.6634923242       26.8474236034
  H        -1.7033705769        8.5420847926       28.4960639831
  C        -2.7353101118       10.1241483346       27.4709504077
  H        -1.3173279080       10.9059557837       30.5873412987
  C        -1.3193725264       13.8106016002       31.4116629242
  H         5.3123730822       12.6375827259       20.1956190687
  H         7.1136511198       12.1796165691       20.4646293588
  C         6.7039021080       13.8227347628       19.1889895098
  C         3.5517339504        7.6699271305       15.7546183322
  H         2.5351856459       10.5120131715       28.0656677720
  H         1.8742708637       11.0265545353       29.6164225075
  C         3.2579231078        9.2473236190       29.7137820808
  H        -2.4746546033       10.7234522367       26.5396637315
  H        -2.9089392624       10.7804945409       28.3436553576
  C        -3.9685585900        9.3318853286       27.2548637350
  C        -1.3012803607       15.2095276591       31.6292524333
  C        -1.5330179850       13.0128849876       32.5767688944
  H         5.8420164968       14.4613525160       19.0115659592
  H         7.5925801337       14.3581788746       19.3053273547
  C         6.9911657205       13.0431794540       17.9018416738
  H         3.3338879454        6.6018543421       15.7985934841
  C         3.9087759889        8.1135827981       14.4956944812
  H         3.6652302046        8.6053467193       29.0151242298
  H         2.6554727566        8.6488768397       30.3822326102
  C         4.3640420416        9.9623384296       30.4767005225
  H        -3.8508734853        8.5329655026       26.5052532667
  H        -4.1619339121        8.6802485246       28.1548969541
  C        -5.2794812928       10.0415441062       26.9369309062
  N        -0.9766760338       16.1582443214       30.6823361592
  C        -1.5588497234       15.7916638559       32.8780195098
  C        -1.8535714798       13.5906798295       33.8261618725
  H        -1.4338722667       11.9408493011       32.6059126156
  H         6.1816417493       12.3114015330       17.7672010035
  H         7.0581274155       13.5846032057       17.0057030383
  H         7.8759982623       12.4370119299       17.9112851226
  S         4.4655577003        9.6972616025       14.1330990458
  C         3.7977502772        7.1473117835       13.3537359238
  H         4.4847134193       10.9721903475       30.0724222315
  H         4.1817938618       10.0077598874       31.5252067926
  C         5.7181489523        9.2940883291       30.3637612878
  H        -5.1790177030       11.0570151872       27.3549581206
  H        -6.1064263800        9.5904305432       27.5003476403
  C        -5.5645657304       10.3083349319       25.4211394940
  S        -1.0317391271       17.6584149674       31.3930770519
  N        -1.5114095247       17.2008532273       32.8903827048
  C        -1.9410147713       15.0166741356       34.0192116428
  H        -2.0126543553       12.9284940697       34.6410317779
  C         4.5103414906        9.0754027996       12.4481002348
  N         4.3441240820        7.7416941046       12.2592540998
  O         3.5351606571        6.0015430047       13.4577898982
  H         6.4326586328        9.9872497039       30.7629443280
  H         5.9616394477        9.0629681224       29.3775467221
  C         5.7076317719        7.9344200006       31.1395273496
  H        -4.7931939137       10.8030337153       24.8024591612
  H        -5.5952929403        9.2748228651       24.9648256138
  C        -6.9351750339       11.0000433449       25.1916782430
  C        -2.3508115394       15.7027465085       35.2044090840
  S         5.1227408494       10.0112642165       11.0719636817
  C         4.3781044487        7.1653197011       10.9176247729
  H         5.8817040547        8.1810842412       32.2183513537
  H         4.8007197217        7.3151041185       30.9187403238
  C         6.8461053000        6.9785218526       30.6399365081
  H        -6.9564268567       11.3198754941       24.1624159732
  H        -7.1718794872       11.8361875746       25.8984239182
  C        -8.0486196341        9.9361746834       25.2544633032
  H        -2.2260458307       16.8470962671       35.2411611762
  C        -2.9483728893       15.2565057235       36.4036540927
  H         5.2710794199        7.4279030366       10.3209373973
  H         4.6098339203        6.0488376696       11.1038179270
  C         3.0489048278        7.3180696978       10.1129331313
  H         7.6008746703        7.7491378380       30.4492514105
  H         6.6340761824        6.6003820903       29.6687059026
  C         7.2978516014        5.8594298849       31.5674669142
  H        -7.9949336403        9.2645695007       24.3926182217
  H        -7.9345849368        9.3775608017       26.1865481546
  C        -9.4646754461       10.4901515171       25.2793211563
  S        -3.5988289102       13.6759450401       36.6791023634
  C        -3.0591497045       16.2626438057       37.5211688647
  H         3.2929608367        7.5831486276        9.1040389563
  H         2.4452343240        6.3802767798       10.1637927093
  H         2.4867520541        8.1057748672       10.6520665415
  H         7.3728780985        6.2228004758       32.5784059782
  H         8.2267947539        5.3676882420       31.1691624434
  H         6.5670473957        5.0776171008       31.6039658163
  H        -9.6528960261       10.8425097416       24.3095896475
  H        -9.6574355142       11.2958969148       26.0363444023
  H       -10.2252819288        9.7186510178       25.4483752003
  C        -3.8884770137       14.2903243242       38.2826510010
  N        -3.6708653980       15.6203311947       38.5192122022
  O        -2.6685028566       17.4354417127       37.4646161086
  S        -4.8663921976       13.2976322809       39.4424097217
  C        -4.0093767255       16.1978315580       39.8086804418
  H        -4.0787648901       17.2647180334       39.6702300616
  H        -5.0357631481       16.0283704474       40.0317737148
  C        -3.1548339064       15.6696748948       40.9600102283
  H        -2.0785134759       15.6437092475       40.6256633483
  H        -3.1954915204       16.2700392620       41.8967395056
  H        -3.5248391281       14.6841553174       41.1993928196
