352
i=
  H         4.7503990626        3.2168058248       12.4446490802
  C         3.6997626325        3.1364215440       12.4158136260
  H         3.4718683810        4.1516502675       12.4097101818
  C         3.2538110147        2.4879889781       11.1249237064
  C         3.0703594192        2.6149462612       13.6414884966
  C         4.2271138364        2.8267828577        9.9888353914
  H         2.3683229742        3.0688789504       10.8869071594
  H         3.0553013917        1.4428354555       11.3016521366
  H         2.0092937361        2.2523921733       13.4462278210
  H         2.9290822265        3.3927179254       14.4358255427
  H         3.5851439174        1.7512011245       14.1653962923
  C         5.2705651588        1.7732562211        9.6467236770
  H         3.6970580417        3.0041917808        9.0858721643
  H         4.6504174261        3.7658416069       10.0640838576
  C         6.0754559183        2.1309917555        8.3603272357
  H         4.7118509812        0.8973130693        9.5065268203
  H         5.8994164366        1.7314850602       10.5160707714
  C         7.1789852883        3.1858424199        8.6157463435
  H         5.4499855169        2.3347562985        7.4896688440
  H         6.6495598024        1.2084215170        8.1062758072
  C         8.4424257909        2.5810930640        9.1786688281
  H         7.3745750515        3.7207723243        7.6854749549
  H         6.8105163962        3.9711499278        9.2642145804
  C         9.6595959257        3.4364128432        9.2830058340
  H         8.6681207673        1.6086657277        8.6987643325
  H         8.0832375572        2.1873761908       10.1604573283
  C         9.1751152047        4.7629160115        9.8509490840
  C         9.9514626984        4.0940090150        7.9804923606
  C        10.8741965693        2.8117710183       10.0242899286
  C         9.4173250407        5.8534276999        9.0202976749
  C         8.4341679673        5.1596625765       10.9707427307
  C         9.8588513619        5.4450137912        7.7719780192
  C        10.4016056442        3.4142582488        6.8637150570
  H        10.5103278721        2.5469685581       11.0021385229
  H        11.0318112869        1.8972649091        9.5111292167
  C        12.0370343234        3.7966731282       10.0600886910
  S         9.0109486290        7.3273518897        9.7775492934
  C         8.3894108255        6.5384025962       11.1703684648
  H         8.1331540777        4.4112553236       11.7326491302
  C        10.1554434183        5.9669868334        6.5176134927
  H        10.4352412330        2.3810537709        7.0820288106
  C        10.6768947343        3.9504862176        5.6418047985
  H        11.6994975377        4.8148797538       10.5039303476
  H        12.4410109148        3.8672455843        9.0443542161
  C        13.0974445535        3.1788262807       10.9019448399
  C         8.1099633070        7.1354309772       12.5151845610
  C        10.5779599938        5.2801668337        5.3974693489
  H        10.0484520650        6.9921551309        6.2288158514
  C        11.1177882476        3.5141138297        4.3534753216
  H        14.1097107646        3.4909265774       10.6289020215
  H        13.1529737679        2.1460868810       10.6968595696
  C        12.8617445039        3.5658477711       12.3593145359
  C         8.0542084110        8.5067346195       12.8141400995
  C         7.7140739818        6.2030222895       13.6790498998
  C        10.9722704027        5.8940089102        4.0769310938
  C        11.2851332541        4.5239121362        3.4217198976
  S        11.4382925061        1.9673711582        3.6548994364
  H        13.6513573717        4.3270393073       12.6326274210
  H        11.9521349115        4.1655656202       12.4972408466
  C        12.8215899943        2.3958033291       13.2655188140
  N         8.2406948635        9.4632743944       11.8728061944
  C         7.8557613129        8.9532739679       14.1428938692
  C         7.3595742182        6.6698939343       14.8914024122
  H         7.8248791352        5.1330082030       13.5547886970
  C        12.3030800996        6.7183464600        4.1981388950
  C         9.8077994235        6.5043683053        3.2293585130
  C        11.7169901209        4.0690902714        2.1467134007
  C        11.8600010232        2.7350270247        2.1279464636
  H        13.6751097136        1.7984534781       13.1068313823
  H        11.9493994417        1.7562852812       13.0717878470
  C        12.7802873743        2.8366015735       14.6728065096
  S         8.3908966279       10.8832168494       12.6676021424
  N         7.9745943085       10.3269584161       14.1536369807
  C         7.4982648359        8.1390447064       15.2301019615
  H         7.1689111886        5.9408971491       15.6833703147
  H        12.0921537588        7.4073248351        5.0300698330
  H        12.4717025079        7.3339237472        3.3390660141
  C        13.6027144419        5.8847392337        4.4507092946
  H         9.4771474573        7.3190443890        3.8252304894
  H        10.1728540767        6.7779932452        2.2256941239
  C         8.6148127494        5.5509846349        2.9655964412
  H        11.6319404127        4.7565384138        1.4024080420
  C        12.2538261279        1.9368528583        0.9473976140
  H        13.6090862171        3.4435812026       14.9520851109
  H        11.9123975555        3.3787635497       14.8415010233
  C        12.9125764267        1.7725770544       15.6901707961
  C         7.2294064176        8.7661253686       16.4883004031
  H        13.3520513554        5.2286131123        5.2955997169
  H        14.0119460956        5.3193378784        3.6754447525
  C        14.7363526516        6.7926446512        4.9916380521
  H         8.4100697443        4.9014777189        3.8157185539
  H         8.7140667196        4.8578256231        2.2104822876
  C         7.3210459817        6.4026437090        2.8139069764
  C        12.4002202650        0.5196611671        0.9604153348
  C        12.5408315209        2.6454333611       -0.3189180117
  H        13.8478712944        1.2951839753       15.6010718912
  H        12.0834603729        1.0608490818       15.5801349383
  C        12.9704482813        2.2936593178       17.1385955405
  H         7.3598922350        9.8571127117       16.5157739030
  C         6.8464248769        8.1898402524       17.7008197255
  H        14.2731909711        7.4319951347        5.7533351613
  H        15.1593609004        7.5456771588        4.2834065271
  C        15.7785947330        5.9354289362        5.6787723241
  H         7.1817569995        6.9175914156        3.7625084353
  H         7.5432815912        7.1811957768        2.1287074569
  C         6.0611283480        5.5642976183        2.4265739078
  N        12.2191632692       -0.3763701962        1.9942770706
  C        12.6200418973       -0.1169691159       -0.2780412516
  C        12.6923571012        2.0051862232       -1.5193388142
  H        12.4789508298        3.6760624628       -0.4453409148
  H        13.4175427432        3.3307723289       17.2380104616
  H        13.4065638680        1.6334891120       17.7890677573
  H        11.9262053573        2.3289576271       17.4583985491
  S         6.4865447803        6.4951532564       18.1475589804
  C         6.6823109026        9.0953307463       18.9063653316
  H        15.3145690700        5.3501941015        6.4905338629
  H        16.1494919766        5.1771153122        4.9990215599
  C        17.0540289321        6.6022217714        6.3291968772
  H         6.0676828217        4.6555081906        2.9778531065
  H         6.1253629832        5.1993114730        1.3723485547
  C         4.8178845440        6.3632334574        2.5354310096
  S        12.5706728226       -1.8565907465        1.3863778043
  N        12.6673562443       -1.4541194940       -0.1534515679
  C        12.7765483052        0.5422652408       -1.4677289885
  H        12.8130051982        2.4948112691       -2.5002383391
  C         6.1424890036        7.1393191452       19.7924575005
  N         6.1576350942        8.4375323945       19.9530454589
  O         6.9791242891       10.2406935108       18.8434625766
  H        17.6321554947        7.0475149811        5.5398428701
  H        16.8433367529        7.5785610813        6.8800673454
  C        17.7101161418        5.5483228667        7.1933121150
  H         4.0587939231        5.8509742754        2.0136173864
  H         4.5191878150        6.3312011581        3.5729793311
  C         4.9040933543        7.7442589863        1.8940307725
  C        13.0984392098       -0.2740748010       -2.6039207452
  S         5.5179111762        6.0714615274       21.1005903985
  C         5.8974134740        9.2358783849       21.2572618625
  H        17.0508808168        5.2528065586        7.9431878740
  H        18.0497445879        4.6927294196        6.6026380723
  C        18.9435056057        6.0952000881        7.7775717951
  H         5.0488722414        7.8019176618        0.8380660475
  H         5.6515762339        8.3542040892        2.3194721901
  C         3.7371852613        8.6225111461        2.2142781626
  H        12.7050999873       -1.3084604404       -2.5549085946
  C        13.7389347670       -0.0663980729       -3.8156600110
  H         5.0847235497        8.8274275846       21.7597317081
  H         5.6634019674       10.2622163223       21.0466964903
  C         7.0949160526        9.3332766631       22.2588398912
  H        19.1556100060        5.4764185339        8.7452000152
  H        18.7260678585        7.1437082526        8.0740415815
  C        20.1385831008        6.0311697599        6.8151707593
  H         3.0621321076        8.5368324139        1.2942119124
  H         3.2135512596        8.2617417083        3.0915848970
  C         4.1941860863       10.0952530180        2.3772364497
  S        14.4942915673        1.4464938009       -4.2458512841
  C        13.7095253529       -1.1056838568       -4.8354865180
  H         6.7989477231        9.9142470963       23.0680427574
  H         7.9484296594        9.8260914489       21.8521306499
  H         7.2777302932        8.3541009741       22.7352989989
  H        21.0008917353        6.4302894116        7.3165567589
  H        20.4287545662        5.0137001629        6.6641312249
  H        20.1295983857        6.6576765888        5.9024277838
  H         4.8715067417       10.3520442771        3.1757624988
  H         4.6992780354       10.3063023633        1.3984847245
  H         3.3403525452       10.7844478502        2.5265524740
  C        14.9378937124        0.5499931143       -5.6902951893
  N        14.4746009831       -0.7224622585       -5.8360575286
  O        13.0452862284       -2.1454110001       -4.7959524110
  S        15.8022423684        1.1817050198       -7.0860527187
  C        14.5187901256       -1.4166393871       -7.1106347003
  H        14.5673646777       -2.4317533073       -6.8815283462
  H        15.4394635283       -1.2521313278       -7.7207136023
  C        13.3777320745       -1.0486665708       -8.0081125259
  H        13.9006661027       -0.3340456612       -8.6759228121
  H        12.5170786868       -0.6014774069       -7.5673476555
  H        13.1270611147       -1.9392192762       -8.5517457761
  H        -3.6762814104       14.3258553269       16.3258880071
  C        -2.8307313700       13.6011468738       16.3147481490
  H        -3.1110560340       12.6059406555       16.4663022622
  C        -1.8350992138       13.9315288911       17.4535261455
  C        -2.1720033081       13.6430912877       15.0004155352
  C        -2.5463659524       13.6194634661       18.7442794544
  H        -0.9028805894       13.3054390352       17.4030454158
  H        -1.6247771788       14.9727202198       17.4211468234
  H        -1.1021417165       13.8527687306       15.1316299536
  H        -2.2705207476       12.7110960165       14.5095931599
  H        -2.8009704967       14.3517300905       14.3905786541
  C        -1.4564313441       13.5473414668       19.9252976579
  H        -3.1067356369       12.6595782717       18.6550054820
  H        -3.2857886531       14.3955092876       19.1425720402
  C        -2.0934788877       13.1055131117       21.2507726794
  H        -0.7025643707       12.8088126281       19.6922946542
  H        -0.8546364886       14.4826415631       19.9612329836
  C        -1.1471046204       12.5887348889       22.3554604707
  H        -2.8824724070       12.3738443366       21.0710262769
  H        -2.6705931198       13.9295506784       21.6092540116
  C        -0.0288801277       13.6842076678       22.6874845734
  H        -1.6432297162       12.4860709472       23.3054709996
  H        -0.7271931158       11.5560811139       22.2021648154
  C         1.1484177500       13.0783919228       23.4895669764
  H         0.3484727429       14.0720149592       21.7165956152
  H        -0.4556067812       14.4836962845       23.2728607023
  C         1.6270375449       11.7694240177       22.8585205348
  C         0.7621826128       12.2857697697       24.7535384348
  C         2.2330486416       14.0957950627       23.6513326431
  C         1.4523325261       10.6144274065       23.6096897544
  C         2.0577723589       11.4229165446       21.5695835301
  C         0.9150184061       10.9297473038       24.8280745250
  C         0.3036279896       12.8627314427       25.9313264410
  H         2.5091996554       14.3712707790       22.6339674061
  H         1.7915270518       14.9717701424       24.1337565094
  C         3.5805418195       13.5725865637       24.2514781980
  S         1.9513542723        9.1534626625       22.8296640678
  C         2.2279931541       10.0929883959       21.4256362889
  H         2.1500989923       12.2106598467       20.7822712286
  C         0.6204440263       10.1757271913       25.9265619601
  H         0.1059285874       13.9705289100       25.8387495942
  C         0.0073702575       12.1558237739       27.0430197135
  H         3.9960501106       12.7774070349       23.6026478379
  H         3.3621180179       13.0740136076       25.2342240867
  C         4.6117526649       14.6591941886       24.6673235202
  C         2.7590928298        9.4809435254       20.1204936957
  C         0.2220857972       10.8121830685       27.1315397645
  H         0.7156354530        9.0803180047       25.9395079826
  C        -0.3384651566       12.5237046550       28.3130046773
  H         5.3698284827       14.3687611131       25.3374263612
  H         4.1215513276       15.4642785404       25.1430569023
  C         5.3487852830       15.1502799015       23.4594437024
  C         2.6860651625        8.1019468744       19.7823972261
  C         3.4230525161       10.3298777155       19.1144546733
  C        -0.2512447074       10.0795538673       28.4038693662
  C        -0.5257825524       11.3945393169       29.1160860818
  S        -0.7007228568       14.0212112674       29.1061890592
  H         5.9679132821       16.0187459475       23.7844945404
  H         4.5959786506       15.5655117309       22.8269844613
  C         6.1900526514       14.1163871402       22.6604968026
  N         2.1890288463        7.1114614526       20.6581992438
  C         3.0705102168        7.5575824715       18.5848994088
  C         3.7503159155        9.8329663054       17.8684939557
  H         3.3126182477       11.3856501935       19.2755256236
  C         0.9381962082        9.3899050400       29.1841494703
  C        -1.4325154728        9.0728547234       28.1629681144
  C        -0.9017698887       11.7255290570       30.3909956168
  C        -1.0652508356       13.0554372098       30.5766008628
  H         7.2293585705       14.2435527514       22.7899057645
  H         5.9760682560       13.0059185920       23.0284515010
  C         5.8574072152       14.1112305555       21.1215932617
  S         2.2942292606        5.7200616967       19.8682830146
  N         2.8428696700        6.1787173160       18.4198452720
  C         3.5077032078        8.3767339421       17.5389812680
  H         3.9915404810       10.5797463338       17.1308216165
  H         1.3549343143        8.6645108744       28.4901891514
  H         0.5733048144        8.6606594492       29.9333527629
  C         2.0457301734       10.2739039877       29.7121582664
  H        -1.1289757888        8.2869449361       27.4624192821
  H        -1.5100380690        8.6924200489       29.1435322602
  C        -2.7688493938        9.8170504689       27.8388539866
  H        -0.9957018067       10.9573693284       31.1596830102
  C        -1.2638601570       13.8379058106       31.8396356726
  H         6.0057433307       15.1254269956       20.7481177013
  H         4.8010308980       13.8269288181       20.8941717554
  C         6.8155808911       13.2144060033       20.4214707434
  C         3.7934614671        7.8156834515       16.2133069482
  H         2.4771838907       10.9429110156       29.0019544994
  H         1.7333180141       10.8498162509       30.6079891118
  C         3.2147673049        9.4525519641       30.1860318749
  H        -2.6510805410       10.3806279352       26.9128860640
  H        -3.1542267983       10.5107565911       28.6012058889
  C        -3.9217438040        8.8824908847       27.6746713578
  C        -1.3586939563       15.2214119537       32.0385824017
  C        -1.2453193475       12.9776181087       33.0538811889
  H         7.8447725110       13.4071418901       20.7596817126
  H         6.6140932411       12.1704891154       20.5913988524
  C         6.7282520405       13.3682092401       18.8833253372
  H         3.9675043038        6.7601383989       16.2752007733
  C         4.1332440745        8.3585073507       15.0160934971
  H         3.7078228712        8.9305172058       29.3825136711
  H         2.8957045059        8.6286229853       30.7874868515
  C         4.1376950953       10.2027820268       31.1530185834
  H        -3.5948572219        8.0206628098       27.0341616554
  H        -4.1244760817        8.5057210154       28.6881254961
  C        -5.2736283691        9.4583638180       27.1738175651
  N        -1.2436479106       16.2147310583       31.0996672542
  C        -1.5380254748       15.7749973924       33.3262535945
  C        -1.6900344577       13.5164225768       34.2487167019
  H        -1.2420770913       11.8931097792       32.9671259026
  H         5.8459581588       12.9027903659       18.3807160561
  H         6.7406203130       14.4057579588       18.6231636971
  H         7.5639180771       12.8039803292       18.4946318731
  S         4.3663201077       10.0003605820       14.5485649652
  C         4.3092821218        7.3665503190       13.8943985090
  H         4.3120601020       11.2223267546       30.8373796617
  H         3.7202951978       10.2460812170       32.1781563817
  C         5.4790058080        9.6114501852       31.0057560810
  H        -5.5144675773       10.1663676031       27.9171395927
  H        -6.0878019844        8.7520729113       27.1742714609
  C        -5.2972177860       10.1809097192       25.9076366125
  S        -1.2477107704       17.6719014117       31.8746244657
  N        -1.4280189605       17.1427920427       33.3989325686
  C        -1.8149628394       15.0219176023       34.4596478585
  H        -1.8315687769       12.9461843057       35.1479058555
  C         4.6650576970        9.3669530340       12.8616848639
  N         4.5657853993        8.0319875245       12.7049631634
  O         4.0056819275        6.1971638326       13.9392020172
  H         6.1817774138       10.2688356213       31.4306699611
  H         5.8489038759        9.5319948989       29.9765875045
  C         5.8117163303        8.3045346575       31.8504544071
  H        -4.4807176836       10.8913459432       25.8957073205
  H        -5.1140473809        9.5439407153       25.0178554555
  C        -6.6568142766       10.9782865404       25.8049161364
  C        -2.1345542494       15.6891560283       35.6794714339
  S         4.9540051119       10.2800828650       11.3726682581
  C         4.4790748226        7.3395727046       11.4547636038
  H         6.7994149458        8.3721225967       32.3980434023
  H         4.9524951029        8.3386388639       32.5213121363
  C         5.8446086834        6.9690024852       31.1096871635
  H        -6.5652730389       11.8265641996       25.2172496877
  H        -6.8869062479       11.1801501033       26.8337466636
  C        -7.8465853704       10.1374133953       25.4190475086
  H        -1.7087097156       16.7099977639       35.6625439710
  C        -2.7246991925       15.2231071564       36.8192673997
  H         5.0460354236        7.7859358291       10.6837252382
  H         5.0675882671        6.4010824888       11.3937513734
  C         3.0481672867        7.0541669890       11.0214212913
  H         5.0377689270        6.9309559753       30.4003178772
  H         5.8345195509        6.0829053210       31.8292459195
  C         7.1581308815        6.9022054517       30.3040076897
  H        -8.2113190156       10.2057231095       24.4334410859
  H        -7.4074975688        9.1256269294       25.3862637793
  C        -8.9784836653       10.2507684225       26.4504417343
  S        -3.4356551440       13.6622689555       37.0749298263
  C        -2.8437084568       16.1678331065       37.9873183358
  H         2.3775229704        6.7357342798       11.8386605383
  H         2.6241828665        7.9748604856       10.6274608103
  H         3.0864406428        6.4175385182       10.2060046985
  H         6.9905786766        7.3313601200       29.3543298075
  H         7.5242834790        5.8595021769       30.1531153461
  H         7.8700831106        7.5324801241       30.8256354237
  H        -9.9308380328        9.8008279408       26.1133400608
  H        -9.1540929059       11.3205623026       26.6417509079
  H        -8.7010930999        9.9150161395       27.3646055987
  C        -3.7657215029       14.2916097057       38.6658762361
  N        -3.5580335735       15.5728523060       38.9582695205
  O        -2.3292409385       17.3050907856       38.0777749167
  S        -4.4457491477       13.3122609439       39.9682626529
  C        -3.7689728192       16.3112313513       40.2016896586
  H        -4.0752251665       17.3178383246       39.9513179596
  H        -4.5768192662       15.8687692800       40.7757173761
  C        -2.4954548783       16.2723462828       41.0436626090
  H        -1.7284153097       15.7493575470       40.4420616369
  H        -2.1574199363       17.3259609473       41.2762240316
  H        -2.7374349026       15.6461146454       41.9353775388
