352
i=
  H         2.7872866187        2.0451453612       14.0731305314
  C         3.5830503673        1.9967560558       13.2947157117
  H         3.6359536622        0.9269540595       13.1996368412
  C         2.9797466456        2.5329791374       11.9356152437
  C         4.9207893744        2.6000228060       13.7355293621
  C         4.0242520806        2.5434312427       10.7723484995
  H         2.4945796209        3.5089261120       11.9704057037
  H         2.2036848242        1.8039984275       11.7111060689
  H         5.7153724620        2.4082336805       13.1084433899
  H         5.2470327574        2.2184448021       14.7360045705
  H         4.7661050011        3.5992417110       13.8337280854
  C         4.6528721019        1.1895403352       10.3575004308
  H         3.3257633260        2.7930090024        9.9464372283
  H         4.7470162239        3.3415035596       10.8970308804
  C         5.1166366190        1.3211691923        8.9075848058
  H         3.7851742216        0.4996939795       10.3381232513
  H         5.3125359707        0.9263444019       11.0407576281
  C         6.3936509424        2.1981523421        8.7934063961
  H         4.2901862433        1.8350497925        8.4937700625
  H         5.2134588134        0.2491003568        8.4839565029
  C         7.6801785430        1.5209030026        9.2751156784
  H         6.4923758131        2.4260468685        7.7464372158
  H         6.2845922665        3.1867719139        9.3057884111
  C         8.8715658885        2.4778280981        9.4666193901
  H         7.9281798210        0.8898701884        8.4893973884
  H         7.4438088803        0.9184645137       10.0706565922
  C         8.5479512909        3.8007824110       10.1409320340
  C         9.3787211682        3.1351927214        8.2151828985
  C        10.0867459221        1.7677196125       10.0903325925
  C         8.8019670065        4.8839185624        9.3130715525
  C         8.0469838567        4.1944573058       11.3989486022
  C         9.2494223384        4.4667005803        8.0737224973
  C         9.9643988786        2.5359848843        7.1453387942
  H         9.6583397637        1.1881507951       10.9821814906
  H        10.3202406699        0.9375539912        9.4292957538
  C        11.2915930535        2.6522899571       10.3357057499
  S         8.2717930788        6.3872906992       10.0341878008
  C         7.9818491825        5.5495327767       11.5502077443
  H         7.7333897115        3.4177522533       12.0624545187
  C         9.6755413986        5.1378591120        6.9319786926
  H        10.1945075009        1.4474268330        7.0883950683
  C        10.4093321580        3.1326895429        6.0156875062
  H        10.9110750615        3.5324882388       10.7799407679
  H        11.8491517918        2.9910031819        9.4529665721
  C        12.3019767024        1.9641002741       11.2576110328
  C         7.6138850157        6.3061251098       12.7790587831
  C        10.3207453515        4.5021757647        5.8870852466
  H         9.6139839832        6.1641736143        6.8981254779
  C        10.9538034876        2.7570288948        4.8218347533
  H        13.3918819065        2.1556611480       11.0173208286
  H        12.1480254219        0.9083495165       11.2198084685
  C        12.1589630087        2.4587006305       12.6466516561
  C         7.5546099875        7.7095946006       12.9226844287
  C         7.0914905471        5.4915343610       13.8827690034
  C        10.8253964354        5.1662882374        4.6004256781
  C        11.1097073316        3.8488955401        3.9870421407
  S        11.3407581653        1.2032298514        4.0525948555
  H        12.6833130341        3.4235523627       12.6751457124
  H        11.1550371296        2.6463076712       12.8478766954
  C        12.6557072391        1.4108099258       13.6167944599
  N         7.9009991114        8.6524277402       11.9526275041
  C         7.2904933886        8.3304169807       14.1370506553
  C         6.7438151953        6.1202607539       15.0951069216
  H         7.0741825216        4.4091940140       13.7660281794
  C        12.2897988240        5.7980844390        4.8867309356
  C         9.8012048770        6.1347322058        3.8802715421
  C        11.4434534588        3.3923506176        2.6572230382
  C        11.5932666848        2.0552861426        2.5747761531
  H        13.6950916159        1.5004672188       13.5365026301
  H        12.2697261082        0.4602140631       13.3009793891
  C        12.4156356554        1.8756736644       15.0962645532
  S         7.7895579987       10.1394029915       12.6222652798
  N         7.3934563566        9.7211019956       14.1655694412
  C         6.8901190369        7.5756660575       15.2851710866
  H         6.3091078451        5.4870931715       15.9045751445
  H        12.1489994253        6.5791967691        5.6237301709
  H        12.5586850903        6.1968150510        3.8877826634
  C        13.5207324976        4.9940450693        5.3006449533
  H         9.4634066300        6.9416417309        4.5966580764
  H        10.2733104204        6.6904655003        3.0526897569
  C         8.5212997549        5.4529315558        3.3117987911
  H        11.4485788014        4.1173793775        1.8737548331
  C        11.8833171441        1.2890692246        1.3150711210
  H        12.2573658311        2.9916530958       15.2378626167
  H        11.4281766739        1.5438817316       15.3740476289
  C        13.4124421628        1.3146354181       16.1341398750
  C         6.8523255682        8.2673845458       16.5058101199
  H        13.2759677851        4.3921931584        6.1226643152
  H        13.8280771292        4.2791184928        4.5739268134
  C        14.6782693509        5.8766007349        5.6532567700
  H         8.1378034501        4.7379336262        3.9961605211
  H         8.8774388474        4.8302877332        2.4150386246
  C         7.3590415831        6.3765560500        2.8422208200
  C        11.8386715547       -0.1273340979        1.1116191839
  C        12.3605482087        2.0833766180        0.0733752026
  H        14.4955333398        1.5814192748       15.9453102026
  H        13.3426809775        0.2642221438       16.1627365230
  C        12.9247446436        1.7351463417       17.5083212832
  H         6.9018816719        9.3290490060       16.4427649373
  C         6.5768943578        7.7508778636       17.8137135983
  H        14.3395967991        6.6862364850        6.2340452081
  H        15.2195236455        6.1336463831        4.7509558221
  C        15.7607873880        5.3669884578        6.5897529158
  H         7.1469352851        6.9774036601        3.6818279388
  H         7.7564888538        7.0618457933        2.0940354852
  C         6.0962047714        5.7089871325        2.3119236062
  N        11.4393346556       -1.0478419152        2.0927164035
  C        12.1945862478       -0.6955547457       -0.0785548830
  C        12.5685259876        1.4789848496       -1.1071567805
  H        12.3901539183        3.1455222174        0.1964478834
  H        13.0789025562        2.8048088492       17.8216023274
  H        13.3827960115        1.1386254035       18.2435541500
  H        11.8371225880        1.5020040664       17.4385555118
  S         6.3285354335        6.1774466876       18.3421166488
  C         6.5412028289        8.7747553176       18.8273433484
  H        15.9212038932        6.0144657576        7.3817687385
  H        15.3489412180        4.4584485698        6.9862692779
  C        17.0336383868        5.0565568128        5.8766992962
  H         5.4660193408        5.3423606378        3.1393571865
  H         6.5310652363        4.8453631892        1.7479842337
  C         5.2125498534        6.4863946003        1.3577357867
  S        11.6834032446       -2.5353252586        1.4365781057
  N        12.2427272406       -2.0949045184       -0.0153714714
  C        12.5801954959        0.0379231332       -1.2332807904
  H        12.7377788325        2.1207191773       -1.9458968582
  C         5.9557628776        6.7855780097       19.9085967623
  N         6.0837085962        8.1819690941       19.9826016266
  O         6.8414635875        9.9714720350       18.6278577182
  H        16.9695790807        4.3713774953        5.0588095903
  H        17.4670095514        5.9771762732        5.4885722150
  C        18.0735594221        4.4776155324        6.8462510613
  H         5.8926173110        6.9071871713        0.5621135804
  H         4.4951625313        5.7845541722        0.8427651699
  C         4.4623072879        7.5321728728        2.1937493608
  C        12.8951594714       -0.7106865464       -2.4225646184
  S         5.4579338195        5.8008215271       21.3108400763
  C         5.8240508814        8.9511136686       21.1985981918
  H        17.4406651052        3.9471392880        7.5954906171
  H        18.5523395113        3.5944151146        6.3911891377
  C        19.0539404650        5.3865863978        7.5326210607
  H         5.2438456975        7.9713280699        2.9138196163
  H         3.8229045037        7.0490433261        2.9275420683
  C         3.8037913149        8.6397328922        1.4026565475
  H        12.6357725057       -1.7460273594       -2.3827755271
  C        13.3265795307       -0.4954690783       -3.6453947518
  H         4.9408845622        8.5247568676       21.7497323467
  H         5.5063912437        9.9643256010       20.9176157262
  C         7.0982672627        8.9537885443       22.1191549750
  H        19.3521666858        5.1112929606        8.5465967086
  H        18.4971837634        6.3593283571        7.7088736305
  C        20.2439677088        5.6459742376        6.6801342306
  H         3.8110194271        8.3099347259        0.3265396434
  H         2.6735290791        8.6236214894        1.6052033646
  C         4.3111522410       10.0325546002        1.7439215301
  S        13.9673147860        1.0327333954       -4.2744027598
  C        13.2820713706       -1.6679447552       -4.6608209770
  H         7.1457534241        7.9984730925       22.6133139732
  H         7.1198188778        9.6930057034       22.9669924036
  H         7.9407521664        9.0472120839       21.5083059164
  H        20.5892513933        4.7068316903        6.2002693908
  H        20.0264331132        6.3254663349        5.8764055492
  H        21.0525386899        6.0908371351        7.1574446042
  H         4.3344562269       10.7292053055        0.9140617090
  H         3.7670010681       10.5839284080        2.5291701167
  H         5.3418929881        9.9439668530        2.0955623482
  C        14.2247184561        0.0960261886       -5.7848619614
  N        13.8822431469       -1.2316974704       -5.7597227004
  O        12.9401373300       -2.8010823352       -4.4310858233
  S        15.0508376910        0.7078571343       -7.2688798014
  C        13.9041520996       -2.0289057784       -6.9944536000
  H        13.9128401229       -3.0552978606       -6.7008704280
  H        14.9136981083       -2.0287909864       -7.3343619070
  C        12.7963974598       -1.7984001888       -7.9623800972
  H        12.6942842624       -0.7690698932       -8.2139556154
  H        11.8928735679       -2.1312764473       -7.5529243139
  H        12.9365189283       -2.3141795308       -8.8859141308
  H        -2.7061616622       14.7668737923       16.1629642039
  C        -3.1438152200       13.8749298572       16.6566094054
  H        -4.0087986338       14.1452968562       17.2778654862
  C        -2.0810812891       13.1045402064       17.5038824750
  C        -3.7500518439       13.1022318762       15.5066674241
  C        -2.6451073979       12.8491935294       18.8690685476
  H        -1.9025195045       12.0699951890       17.0966164158
  H        -1.2575494628       13.7976296063       17.5713639517
  H        -4.4428004864       12.3102479040       15.8335130800
  H        -4.3256447478       13.8591609075       14.9629126597
  H        -3.0719484042       12.4711043145       14.9903042964
  C        -1.5955660887       12.5553638173       19.9745547021
  H        -3.3601477411       12.0163675068       18.7663498629
  H        -3.1089912367       13.8441884017       19.1357952936
  C        -2.2341728549       12.6964541216       21.3344954471
  H        -1.0900412877       11.5847900285       19.8503760114
  H        -0.7650086066       13.2396116699       19.8233938059
  C        -1.3719838259       12.3025830007       22.5519535622
  H        -3.1794804507       12.2429098757       21.3291295247
  H        -2.5100829357       13.7723486450       21.5508199120
  C        -0.1465626362       13.2193279064       22.7683748301
  H        -2.0057729607       12.2948182609       23.4688363670
  H        -1.1765555571       11.2188408431       22.3465732044
  C         1.0873224752       12.5748682124       23.4800901668
  H         0.2320822453       13.6137470367       21.7990147238
  H        -0.5009581029       14.0728231590       23.3618471315
  C         1.4687517589       11.2880078061       22.7547352272
  C         0.8072424934       11.8211908914       24.7338683382
  C         2.3027837092       13.6315508543       23.4843212544
  C         1.5019209368       10.1947908906       23.6253142726
  C         1.6735426408       10.9229127802       21.4527158478
  C         1.0255297318       10.4758507508       24.8788682077
  C         0.3429907609       12.3196571076       25.9402840464
  H         2.4305123919       14.0086240032       22.5144223539
  H         2.0662426317       14.5823564919       24.0544534582
  C         3.7080395187       13.1292159842       23.9132186273
  S         1.9763312486        8.7042988169       22.8553471065
  C         2.0609658223        9.5735129712       21.3106680071
  H         1.6670927244       11.6056251370       20.6365862157
  C         0.7447171824        9.7620347521       26.0342881841
  H         0.1034312706       13.3510488766       25.9477095868
  C         0.0609764042       11.6782761077       27.1159687442
  H         3.9416676363       12.4504745821       23.1108302029
  H         3.8015581882       12.5068529045       24.7569660014
  C         4.7509220973       14.2369238543       24.1750927147
  C         2.5072166477        8.9117011516       19.9752216722
  C         0.1738846994       10.3696388478       27.1851411528
  H         0.9362079232        8.7612206821       26.0482406345
  C        -0.3156905494       12.1531350231       28.3566881111
  H         5.6482992385       13.7857466321       24.7549803875
  H         4.3064950864       14.9339876036       24.8999879748
  C         5.3522415768       14.8622890219       22.8616759525
  C         2.4843326171        7.5296718497       19.6872399156
  C         3.0879369702        9.7348893798       18.9024634029
  C        -0.2177639342        9.6864628327       28.5296448618
  C        -0.4578018307       11.0507906385       29.2056565689
  S        -0.5321397823       13.6963356010       29.1245678776
  H         5.6339122484       15.9436522149       22.9720216852
  H         4.5704810031       14.8334757771       22.1452303721
  C         6.4469284259       14.0161718469       22.3187749890
  N         2.0375066782        6.5542516318       20.5525688878
  C         2.8429514965        7.0092952253       18.4435767801
  C         3.4506579783        9.2540390614       17.6500376301
  H         3.2480581006       10.7416770544       19.0960970830
  C         1.0137065324        8.9220462546       29.1849032141
  C        -1.4860626275        8.7358822168       28.4443204422
  C        -0.8938865638       11.4733793503       30.4910965669
  C        -0.8978795846       12.8509294108       30.6203031303
  H         7.3040048972       14.6065038452       22.3608469027
  H         6.6759174949       13.0901162590       22.8815337279
  C         6.0758033097       13.4514484753       20.8945787570
  S         2.2373450080        5.1140180418       19.9174784391
  N         2.8756931813        5.6328457986       18.5094730340
  C         3.1628698547        7.8782250366       17.3120895456
  H         3.8301305684        9.9170981052       16.9477335994
  H         1.3285206207        8.0077669695       28.5708917264
  H         0.7284915836        8.4569754963       30.1951826593
  C         2.2617475135        9.8280875036       29.3735174469
  H        -1.1307258480        7.7832150147       28.0328520725
  H        -1.7548805439        8.3968037467       29.4685380028
  C        -2.7312112863        9.4420549728       27.8123308683
  H        -1.2615123024       10.8086305978       31.1853900496
  C        -1.2779797805       13.5635852267       31.8664577925
  H         5.5737390816       14.2819646752       20.3526833514
  H         5.4754473781       12.5312223058       20.8687943301
  C         7.3386521257       12.9335834929       20.2158383324
  C         3.3744454269        7.3204991450       16.0311178827
  H         2.6211469967       10.3371805333       28.4846555679
  H         2.2548630679       10.6058149684       30.1990511517
  C         3.4402096790        8.9827231819       29.7087594252
  H        -2.4650852579        9.7012837320       26.7736047756
  H        -2.9420566999       10.4387822030       28.3545504741
  C        -3.8871498349        8.4581967531       27.8905898309
  C        -1.3775264998       14.9957617463       31.9548728163
  C        -1.4819975087       12.8178841108       33.0908565564
  H         8.1133031887       13.5656441641       20.6877471785
  H         7.6694522666       11.9663149921       20.5001985704
  C         7.3972647836       13.1609258438       18.7361212975
  H         3.1759157523        6.2419555671       16.0044661904
  C         3.6677872048        7.8131982967       14.7561295310
  H         3.7863584326        8.4286918881       28.8413530845
  H         3.0080076841        8.2895831927       30.3963724414
  C         4.5693996023        9.8087299930       30.2903268269
  H        -3.6506589405        7.6014644391       27.2457470823
  H        -4.0974255742        8.2120019379       28.9355744373
  C        -5.1704735541        9.1100702514       27.3195737343
  N        -1.1157301147       15.9273816922       30.9805705181
  C        -1.6802622811       15.6097602485       33.1713531710
  C        -1.8783193953       13.4341790906       34.3396217211
  H        -1.3512460968       11.7304860628       33.0557216200
  H         7.9501135136       12.3050604687       18.2829329223
  H         6.4916942668       13.2965881855       18.2264017224
  H         7.9673519111       14.0709177180       18.5260655994
  S         4.0682899451        9.3625509074       14.2899218977
  C         3.6150213126        6.8375660668       13.6493617083
  H         4.5084978531       10.7256909082       29.7068929659
  H         4.4986452923       10.2606448129       31.2602512018
  C         5.9248495853        9.2126704214       30.1162532545
  H        -5.3522945265        9.9946343800       27.9232685514
  H        -5.9632328327        8.4197025089       27.6515796298
  C        -5.2776688949        9.6106523165       25.8171007574
  S        -1.2753331958       17.3995886491       31.6156274040
  N        -1.5732065485       16.9875770013       33.1283874929
  C        -1.9286249720       14.9175896719       34.4386181844
  H        -2.0716971023       12.7924951068       35.1640726838
  C         4.2448976647        8.8066629799       12.6959043424
  N         4.0182057451        7.4579235262       12.5569124263
  O         3.1961131561        5.6949060963       13.7530141214
  H         6.6067800840        9.9252033888       30.5679324005
  H         6.2217836737        9.1729280529       29.0749343163
  C         6.0648260839        7.8935153478       30.9287207121
  H        -4.4387984705       10.2501083843       25.5094242598
  H        -5.1276016952        8.7601007908       25.1324398809
  C        -6.6312390763       10.3139908970       25.4475502367
  C        -2.2808008020       15.7180016622       35.5584393160
  S         4.4769933940        9.8856255408       11.3073932637
  C         3.8539053559        6.7865671139       11.2847524160
  H         6.7855033146        8.1277909921       31.6844741311
  H         5.0992919401        7.4833032712       31.2713942832
  C         6.7193296256        6.7761240086       30.2077227922
  H        -6.5293322182       10.7744073064       24.4948613515
  H        -6.7805360986       11.1176441400       26.1875828255
  C        -7.8040147397        9.3476183500       25.4411987739
  H        -2.1436831671       16.7921191915       35.4791270321
  C        -2.8724782582       15.2886310772       36.7276177962
  H         4.6030749416        7.0049496836       10.5615265110
  H         4.0336693484        5.7546770598       11.4137069697
  C         2.4198425740        6.9303466263       10.6681495144
  H         7.6004618270        6.9989508309       29.6649390466
  H         6.0308166452        6.4739484992       29.4763286787
  C         7.0389120916        5.6817974235       31.1149321989
  H        -7.5690287079        8.5266500844       24.7185009294
  H        -7.8301828477        8.8420939926       26.4145368567
  C        -9.1921759177        9.9238520859       25.1594998880
  S        -3.4387686811       13.7642059183       37.1425171056
  C        -3.0193096780       16.3079834151       37.7707138131
  H         2.4031871492        6.5853353473        9.6345476686
  H         1.5933806999        6.5532759268       11.2662309975
  H         2.2786141595        8.0144657340       10.5595426648
  H         7.8424518323        6.0766196957       31.7634115673
  H         7.4243709388        4.8316146090       30.5585596411
  H         6.1444769483        5.3450153971       31.6725054108
  H        -9.3305404035       10.2688380138       24.1368724157
  H        -9.3991204014       10.8387939321       25.8108455929
  H        -9.9816949415        9.1854052857       25.3175828120
  C        -3.7839908093       14.4107515373       38.7910747486
  N        -3.6071198475       15.7617809628       38.8380648977
  O        -2.7130079502       17.5076490784       37.6294392101
  S        -4.5439756287       13.5294126305       40.2608308861
  C        -3.9480283113       16.4924308385       40.0842995823
  H        -4.0895310507       17.6031676062       39.8957466793
  H        -4.8135328977       16.2237927267       40.6740282259
  C        -2.6408846071       16.4010028407       40.9860180785
  H        -2.5829452320       17.2842980755       41.5948782823
  H        -2.6105527091       15.5384384066       41.6697334830
  H        -1.7314191861       16.4134056179       40.3911547116
