352
i=
  H         2.3949629198        3.0123231415       12.5793367524
  C         3.0927782021        2.2981198710       13.0627076830
  H         2.6476070958        1.3258060318       12.6496884679
  C         4.5360776787        2.5585389709       12.5065499710
  C         2.9440680988        2.3480278524       14.5462164825
  C         4.6055313154        2.5551523703       11.0040448300
  H         5.2161460121        1.8113021396       12.9530228193
  H         4.9274321073        3.4826097099       12.8984230037
  H         3.1974675823        3.3321409647       15.0007134811
  H         3.6656093014        1.6159790229       14.9571146713
  H         1.8614606165        2.2419083574       14.6131584877
  C         5.0488557425        1.1882234280       10.5380987573
  H         3.7568554968        2.9304292675       10.4701761474
  H         5.3176523384        3.3300445024       10.7999177140
  C         5.5407002945        1.1389318964        9.0962736258
  H         4.1492495649        0.5448384336       10.7878092854
  H         5.8674893463        0.7432607197       11.1494223069
  C         6.8313283369        2.0106656041        8.7458337812
  H         4.6488116045        1.4714826774        8.5982405238
  H         5.6807320217        0.1126434775        8.6339181432
  C         8.1012236462        1.4145559089        9.3454137659
  H         6.8737998023        1.9471634725        7.6765098973
  H         6.7352865354        3.0258957056        9.0716411737
  C         9.3304539473        2.3525670948        9.3211455802
  H         8.2854699558        0.4321755026        8.9068583797
  H         7.9834488365        1.2107544723       10.4004948107
  C         8.9972110393        3.7041754459       10.0245222863
  C         9.6642599238        3.0220116677        8.0102697484
  C        10.6013549292        1.6936866873        9.9378997365
  C         9.1718755150        4.7621922084        9.1117972454
  C         8.5155334058        4.1871279057       11.2210007854
  C         9.6619536268        4.3770911591        7.9006540783
  C        10.1987646835        2.4082327726        6.8707130119
  H        10.2852668823        0.9172114654       10.5624680099
  H        11.0821410028        1.1374718815        9.1808041132
  C        11.5954926846        2.6600047343       10.5574524233
  S         8.8992214467        6.3287037205        9.7681937448
  C         8.3734481673        5.5461956243       11.2067624304
  H         8.3037966669        3.4943882177       12.0656388971
  C        10.1086662892        5.0089477349        6.7834322523
  H        10.3666707311        1.3219761845        6.9220558977
  C        10.6396453369        3.0387532771        5.7111728161
  H        11.1637820451        3.2356123798       11.2951258909
  H        12.0006349931        3.3117546363        9.7771894989
  C        12.7884352399        1.9999760826       11.2230823617
  C         7.9001304007        6.3120195835       12.4080134293
  C        10.6129058631        4.3806018236        5.6032685614
  H        10.0662264519        6.0497238955        6.7020323470
  C        10.9589966916        2.6140840813        4.4404883741
  H        13.5253625143        2.7930449523       11.2739604109
  H        13.2523491157        1.1339617887       10.7091445740
  C        12.3114182746        1.5950673783       12.6461273996
  C         8.0284503355        7.7082352633       12.6736132622
  C         7.4255558961        5.6124337477       13.5973622160
  C        11.1156582089        5.0550924342        4.4139308962
  C        11.2894604137        3.7032392490        3.6511406254
  S        11.2150301127        1.0992278031        3.6955461216
  H        11.2172842117        1.6617226804       12.7062432557
  H        12.5646724395        0.5771718729       12.6675110946
  C        12.9203096785        2.4419425474       13.8270345230
  N         8.4606472592        8.5963567912       11.7113499557
  C         7.8118260787        8.3168240244       13.9128863089
  C         7.2233931892        6.2159099998       14.7936472052
  H         7.0756739649        4.5474031674       13.5195925593
  C        12.4125676023        5.8549228741        4.5766432562
  C        10.0080045562        5.8447660130        3.7252858256
  C        11.6536509701        3.3529134065        2.3923140727
  C        11.5533975452        2.0013317148        2.1848995457
  H        12.6476706554        3.5037194129       13.4972871683
  H        13.9820817964        2.3323802536       13.7253724795
  C        12.3369316628        2.0790681603       15.2616549396
  S         8.6951365466       10.0396700421       12.4341474744
  N         8.1087042535        9.7012391200       13.8814081217
  C         7.4753445036        7.6406615064       15.0917167591
  H         6.9988157422        5.5294405699       15.5527789560
  H        12.3597074819        6.6405526131        5.2784235901
  H        12.6668079180        6.3966783009        3.6249733119
  C        13.6149315573        5.0425456008        5.0130771304
  H         9.6946798362        6.6564220270        4.4107839656
  H        10.3911272934        6.4215489607        2.9344814177
  C         8.8432754517        5.0491343552        3.1745041324
  H        11.8800814450        4.0976604334        1.6645379718
  C        11.7273975336        1.2714193845        0.9030657080
  H        11.8511624014        2.9967859026       15.6336199626
  H        11.5418461242        1.3859159741       15.0891173616
  C        13.4133104222        1.7300356884       16.3297397840
  C         7.2711792935        8.3518660298       16.2655103975
  H        13.3931009839        4.3183238772        5.8658355919
  H        13.9166108008        4.4780877988        4.1138249082
  C        14.7953674220        5.9361367321        5.3708942195
  H         8.5689488154        4.2033423166        3.7814321640
  H         9.1194080775        4.5209981834        2.2601989022
  C         7.6117503857        5.9343760347        3.0188321702
  C        11.8424504340       -0.1445708975        0.7037187828
  C        11.9683229909        2.0646631449       -0.3306184703
  H        14.3991597819        2.1397963831       15.9588616593
  H        13.4298591652        0.6683764946       16.3880118878
  C        13.0915605359        2.4013100079       17.6974086176
  H         7.5363292572        9.4084739415       16.1942696566
  C         6.8676203525        7.8986436822       17.5422306558
  H        14.4516892650        6.6843247982        6.1152564347
  H        15.3963232331        6.4494355822        4.5955282075
  C        15.8623449539        5.0832387267        6.1168416537
  H         7.3033256540        6.4317677360        3.9423581029
  H         7.7799887133        6.7574292188        2.3244422915
  C         6.4348602882        5.1200155627        2.4776736583
  N        11.6006135113       -1.0279857155        1.7574974904
  C        12.0815276005       -0.7613844670       -0.5044033646
  C        12.3920591188        1.4402385905       -1.5216428084
  H        11.7936406828        3.1604752407       -0.3344928600
  H        14.0842796493        2.6556381837       18.1691811427
  H        12.5330833845        1.7288120749       18.3338003298
  H        12.6275565328        3.3982952966       17.7197824069
  S         6.3340241699        6.3674175859       17.9444796828
  C         6.8455198648        8.9721243285       18.5755711153
  H        15.2763956992        4.4834031645        6.8212818501
  H        16.2217674520        4.4672624358        5.3178688346
  C        16.8753635873        5.9531075542        6.8399599090
  H         6.3146180805        4.2264744112        3.0260722106
  H         6.6880356642        4.8158472598        1.4147836496
  C         5.2350687218        5.9915267674        2.4601907444
  S        11.7223446313       -2.5554919681        1.0808913202
  N        12.2313216064       -2.1435205642       -0.4008069535
  C        12.3800466324       -0.0230888338       -1.6353845223
  H        12.6597930082        2.1047493476       -2.3320958588
  C         6.0286324883        7.0897510332       19.5957375185
  N         6.2926279663        8.4255818040       19.6565051492
  O         7.1377898327       10.1209797661       18.3541137428
  H        17.2168845525        6.6913143702        6.1147416249
  H        16.3267610657        6.4758398335        7.5999698363
  C        17.9692274441        5.2306576771        7.5573057252
  H         4.4247446325        5.3456447406        2.4199109442
  H         5.1248780083        6.6453769470        3.3236444346
  C         5.1342935848        6.8846252507        1.1666114731
  C        12.6367844659       -0.7151660944       -2.8844168289
  S         5.5842436192        6.1122480724       20.9405706499
  C         6.0650203791        9.1373493621       20.9307512959
  H        17.7647779586        4.9656732718        8.6191979867
  H        18.1547155146        4.2451072437        7.1601513524
  C        19.2132186073        6.0307959194        7.5759033365
  H         4.6294706560        6.2834896054        0.3492161699
  H         6.1479652536        7.2392002715        0.9106194277
  C         4.3854465871        8.1513817357        1.5082716646
  H        12.5113128434       -1.8271609239       -2.7969276979
  C        13.2613937592       -0.2981475612       -4.0325167397
  H         5.2526897858        8.5839037505       21.4646988103
  H         5.7943937918       10.1760439925       20.8510796417
  C         7.2919484780        8.9437385206       21.7666343770
  H        19.5871165530        5.8990572272        8.5910893101
  H        18.8996586323        7.1278341578        7.5980948342
  C        20.1244963260        5.6176102398        6.3612015683
  H         3.8444634050        8.3961457086        0.5789856691
  H         3.7346388369        7.8773344137        2.3773679392
  C         5.1770477110        9.3170334234        2.0127508961
  S        13.7391221480        1.3558279585       -4.3592518795
  C        13.4691177879       -1.2888289660       -5.1179347711
  H         7.6033121639        9.8967286804       22.2392047291
  H         8.1566884053        8.6157848050       21.1243229322
  H         7.0949700093        8.2364027418       22.5362367618
  H        19.5936015926        5.0007768984        5.6033372216
  H        20.5476103796        6.5002274132        5.8867500070
  H        20.8995200537        5.0429533593        6.7417653881
  H         5.6690293160        9.9357444309        1.1987241775
  H         4.6601380209        9.8930043118        2.7596858025
  H         6.0474191671        9.0631502098        2.6184650367
  C        14.1998762394        0.6839787969       -5.9511015630
  N        14.0602853573       -0.6480446586       -6.1415413053
  O        13.0309955501       -2.4690954509       -4.9886500418
  S        14.5577992312        1.7995972319       -7.2535534427
  C        14.2641477296       -1.4015165471       -7.3106601257
  H        14.4316066555       -2.4871763750       -7.0401783135
  H        15.2117574516       -1.1664901961       -7.9232822154
  C        13.0764828157       -1.2545497861       -8.3181953059
  H        13.1172786766       -2.0329021059       -9.0468204634
  H        13.2294917914       -0.3339735824       -8.8896050083
  H        12.1506234121       -1.1199569294       -7.8174028257
  H        -2.8024805920       14.3430355635       15.6852461451
  C        -2.7553156603       13.2776523659       15.9150695678
  H        -3.6628048704       12.7557187689       16.1288294279
  C        -1.8397530712       13.0608640060       17.1011387896
  C        -2.1027286302       12.7043101466       14.6732001366
  C        -2.4979664154       13.1285222535       18.4141819526
  H        -1.5074476583       12.0030137275       16.9633537070
  H        -1.0799040570       13.7931021645       17.0188070085
  H        -1.0856523423       12.9717911332       14.6546649128
  H        -2.1380838947       11.6737566049       14.7255950416
  H        -2.6181125099       13.0335938201       13.7779963636
  C        -1.5118134342       12.8058100235       19.5843138109
  H        -3.3517311322       12.4341613458       18.4209427825
  H        -2.8717419338       14.1597923082       18.4046058343
  C        -2.0378189431       12.9569816285       20.9556612427
  H        -1.0717019939       11.8772995860       19.4805804119
  H        -0.6218837022       13.5489321295       19.4976602840
  C        -1.1423807656       12.4888895146       22.1812489069
  H        -2.9913562309       12.3757075653       21.1351091622
  H        -2.1633618534       13.9984805376       21.1140383014
  C        -0.0131062023       13.4821140597       22.4299625405
  H        -1.8016406990       12.3868989179       23.0672532557
  H        -0.7904381060       11.4856399168       22.0467414173
  C         1.1600272798       12.8683823271       23.1868810494
  H         0.3820737012       13.7317225228       21.4331774113
  H        -0.3804091024       14.3933988300       22.8622526091
  C         1.5819186715       11.5773738803       22.5067328073
  C         0.8167421481       12.1136544554       24.4578707984
  C         2.3202344265       13.9527434790       23.2795717838
  C         1.4819683273       10.4360836990       23.3515643658
  C         1.9034028140       11.1964204221       21.1728722715
  C         0.9908164064       10.8061438769       24.5877229935
  C         0.3375387934       12.7360701071       25.6289260952
  H         2.5180057632       14.2128143725       22.2315994848
  H         1.8985640059       14.8213390666       23.7523628584
  C         3.6893445543       13.3819831894       23.7881158374
  S         2.0495584732        8.9477350433       22.6353298591
  C         2.1894915276        9.8491512460       21.1946501496
  H         1.8906275071       11.9772188175       20.3731483753
  C         0.7196278396       10.1318114959       25.7533935995
  H         0.1171289750       13.7542184889       25.5778379017
  C         0.0900237906       12.0946818691       26.8067079416
  H         4.0855105374       12.7971937015       23.0117288040
  H         3.4913394094       12.8174637534       24.7213178548
  C         4.6906668201       14.4500365538       24.1605637043
  C         2.6638270358        9.1231091667       19.9551225730
  C         0.2363316218       10.7389048950       26.9448597973
  H         0.9151842897        9.0705558021       25.7994299414
  C        -0.4371438657       12.4298692299       28.0375053026
  H         5.4855294483       14.1423241922       24.8036669001
  H         4.3081533981       15.2176988747       24.7857856618
  C         5.2732356082       15.1242742561       22.9933245533
  C         2.7400659602        7.7291695048       19.7465070482
  C         3.1925796997        9.9654931303       18.8491930383
  C        -0.1269191198       10.0465052857       28.2127938304
  C        -0.5904868985       11.3406523160       28.8740943368
  S        -0.9400703595       13.8821070468       28.7446670483
  H         5.6836604274       16.1091658691       23.2370059201
  H         4.4392582035       15.5181941615       22.3804358939
  C         6.4386032951       14.3292716504       22.1962909455
  N         2.5232037786        6.6807749185       20.6153646312
  C         2.9078759512        7.2253168000       18.5008787630
  C         3.5011801894        9.4215891990       17.5992365596
  H         3.2446376852       11.0432057608       18.9681160326
  C         1.1813830314        9.4445224087       28.7957562501
  C        -1.3446958033        9.0711358093       27.9995107205
  C        -1.0250684703       11.7175721535       30.1610779550
  C        -1.0366056192       13.0673725870       30.2135348041
  H         7.1275229126       15.0940523301       21.9043093907
  H         7.0231176457       13.6934740626       22.8748943961
  C         5.8274995002       13.4412573269       21.1099697824
  S         2.3594816671        5.2264009439       19.8734325220
  N         2.8745381067        5.8064883712       18.4023261535
  C         3.2118791758        7.9996523808       17.3410675159
  H         3.8054295400       10.0673842024       16.8329405608
  H         1.7851232802        8.9495569168       28.0738126719
  H         0.8767093051        8.7133879055       29.5254262547
  C         2.0838109682       10.4711407055       29.5442686843
  H        -0.9692790107        8.2775747705       27.3105201124
  H        -1.6034028552        8.6341129284       28.9702304949
  C        -2.6055392180        9.7348176147       27.5022440736
  H        -1.2649736411       11.0335384313       30.9592409262
  C        -1.3271110890       13.8490385071       31.4704420942
  H         5.1632545420       14.0110005276       20.5403615700
  H         5.4016393237       12.5661614698       21.4841610626
  C         6.9401293796       12.9391942385       20.1960806955
  C         3.4608664253        7.3012835896       16.0985852993
  H         2.0835836473       11.3510264817       28.8613267851
  H         1.4440659041       10.7069904926       30.4024389294
  C         3.4650072848        9.9494259454       29.8762674210
  H        -2.3634420442       10.0756985836       26.4312888684
  H        -2.8812673744       10.4909931100       28.1918895948
  C        -3.8416207468        8.8161075528       27.3447140639
  C        -1.4890982666       15.3094494907       31.5572245858
  C        -1.4610101993       13.1485255142       32.8108460556
  H         7.8270037616       13.4451520465       20.4972914203
  H         6.9819840421       11.8724207908       20.3523718527
  C         6.7029071727       13.1753506484       18.6317995812
  H         3.1420305754        6.2144314406       16.1673338416
  C         3.8683505628        7.7579839419       14.8570310759
  H         4.0592266613       10.0288419318       28.8968275623
  H         3.2802426293        8.9324933599       30.1549972987
  C         4.1960986570       10.7250664744       30.9118909760
  H        -3.7267971562        8.0688000724       26.4897268231
  H        -3.9173483864        8.1871535668       28.2041448548
  C        -5.1498414471        9.5811327766       27.1534461236
  N        -1.4295956746       16.1227822571       30.4216114373
  C        -1.8036868977       15.9327754236       32.7184997021
  C        -1.6442633549       13.8457704571       33.9852064615
  H        -1.3184112720       12.1094974341       32.8217613403
  H         7.5958876990       12.7007076529       18.0864445830
  H         5.8332348082       12.6539978858       18.1443992564
  H         6.6243772260       14.2185863330       18.3595140432
  S         4.3446994391        9.3054547858       14.4067888280
  C         3.9494182461        6.6730984471       13.8586068510
  H         4.4657610863       11.7384789179       30.6388254655
  H         3.6451629797       10.7853165169       31.8655923724
  C         5.5096381525       10.0253746562       31.3222155398
  H        -5.1889732541       10.3970669538       27.8511088906
  H        -6.0025690201        8.9414344700       27.3944825248
  C        -5.3552134590       10.1603161389       25.7497786558
  S        -1.6636844173       17.6511806708       31.0179959132
  N        -2.0898089751       17.2557133680       32.5115560663
  C        -1.8442718887       15.3457729946       34.0032461265
  H        -1.7214213192       13.1533693619       34.8409412604
  C         4.5140909838        8.6294613899       12.7898130704
  N         4.2547006312        7.2750749524       12.6437404276
  O         3.7080385988        5.4923878002       14.0238740490
  H         5.9058034714       10.5263818381       32.1506031849
  H         6.2548003265       10.0917608704       30.5580040680
  C         5.3993375567        8.5691906965       31.6830616835
  H        -4.5267515179       10.8905754292       25.5157502239
  H        -5.3999433876        9.3500884332       24.9904121348
  C        -6.7605836055       10.8394231274       25.7576431525
  C        -2.1073637948       16.1499078963       35.1431200048
  S         4.6701441556        9.6949408755       11.4433355971
  C         4.0589633803        6.5935057663       11.2935719950
  H         6.1276616933        8.3292799703       32.5141781777
  H         4.4168598013        8.3703783658       32.1228746377
  C         5.5541262605        7.5285783192       30.4877531279
  H        -6.7913898292       11.6932783819       25.1101270917
  H        -6.9736991803       11.2008237252       26.8052707737
  C        -7.8076739317        9.8343559234       25.3209229849
  H        -2.0300056571       17.2527153172       35.0227921803
  C        -2.6135647269       15.9223916750       36.3962308360
  H         4.7268575837        6.9785100965       10.4961881731
  H         4.3749586202        5.5126821812       11.4249146437
  C         2.5811878611        6.6737454931       10.8852055025
  H         6.3925675468        7.9403545006       29.9270552907
  H         4.7899471720        7.5082422141       29.7453533546
  C         5.8641040476        6.1029331629       30.9908609956
  H        -7.8383029986        9.6519139783       24.2979366202
  H        -7.6010781472        8.8980062626       25.7977259890
  C        -9.1358978589       10.4574133131       25.6845494157
  S        -2.9669812396       14.3913071371       37.1120338783
  C        -2.6316915621       17.0739201614       37.3232178688
  H         2.2797191943        5.7157569514       10.4586085352
  H         1.9600919847        6.8316102314       11.6861344575
  H         2.5195697701        7.4216414768       10.1470967644
  H         6.8459713689        6.0016221755       31.6035509102
  H         6.0399380072        5.4162554551       30.1941660737
  H         4.9787098471        5.7765148999       31.5507511954
  H       -10.0416402180       10.0430519924       25.2096338073
  H        -9.3045515675       11.4699955322       25.4170768004
  H        -9.3015255648       10.3600973268       26.7657713077
  C        -3.4389553957       15.3053681367       38.4871409753
  N        -3.2265185110       16.6403507788       38.4772562975
  O        -2.3622326965       18.2548900815       37.0246633609
  S        -4.0332730025       14.4791007360       39.9285244035
  C        -3.3600057055       17.5588785006       39.6010219675
  H        -3.5310355356       18.5882703922       39.3172589289
  H        -4.3191542682       17.4378913099       40.0199629910
  C        -2.2136099209       17.4192033545       40.5275060930
  H        -1.2464391945       17.5567280056       40.0306368551
  H        -2.2303218753       18.0406572417       41.4858924794
  H        -2.2251862600       16.4810455379       41.0305434185
