352
i=
  H         2.4976117454        1.2649188288       12.3725890595
  C         3.2597185269        2.0448749371       12.4118704717
  H         4.1855743204        1.5078375351       12.2297811678
  C         3.0101260337        3.0463640068       11.2947090976
  C         3.2928782922        2.5900109206       13.8098289254
  C         4.3100209825        3.2091846305       10.3979846994
  H         2.5877705412        3.9419695572       11.6959839478
  H         2.2103434042        2.6236168118       10.6922772558
  H         2.8280652295        1.8520256236       14.4753949806
  H         2.6151699905        3.4625435946       13.9505908138
  H         4.3228757404        2.7156417653       14.1652479989
  C         4.6694268520        1.9966017179        9.5099594406
  H         4.1562264456        4.0504114192        9.7036010930
  H         5.2236344445        3.4460936667       10.8575732774
  C         5.2463016101        2.2981719920        8.1239426484
  H         3.7797500445        1.3055721660        9.4312927174
  H         5.3203087401        1.4245222018       10.2816480760
  C         6.5587688821        2.9896217407        8.1577045791
  H         4.4433341758        2.8206211834        7.6096997307
  H         5.4215066729        1.3676721337        7.6306559623
  C         7.7619324020        2.1571861146        8.7977194366
  H         6.6926876440        3.2302505267        7.1030568548
  H         6.3785383304        3.9352832604        8.7357011412
  C         9.0920100905        2.9991673026        9.0855194482
  H         8.0015437935        1.3430261470        8.1851370326
  H         7.4100172704        1.7216081010        9.6875530514
  C         8.8070851111        4.3557959963        9.7167556950
  C         9.5634245486        3.6760981460        7.8487457388
  C        10.2519727976        2.2828979526        9.8365587123
  C         9.2113835039        5.4254072116        8.9746183713
  C         8.1702084133        4.7103272277       10.8847658046
  C         9.5994851283        5.0516101055        7.7375550166
  C        10.0270825497        3.0175520044        6.7136478140
  H         9.8337077244        1.6142564019       10.6584942233
  H        10.7318327905        1.5708432850        9.1338855027
  C        11.3289764782        3.1974991082       10.3926089358
  S         8.8136338306        6.9191262294        9.7037633726
  C         8.2148357784        6.0349925126       11.1194052894
  H         7.8788556162        3.8815421094       11.4880883567
  C         9.9663237055        5.6009951543        6.5675511231
  H        10.2562541470        1.9289882375        6.8089225711
  C        10.3852054943        3.6327114088        5.5389819614
  H        10.9354630985        4.0085794331       10.9889995343
  H        11.6998673474        3.7550464390        9.4640714303
  C        12.5236201028        2.5409688473       11.1138904552
  C         7.8408680763        6.6974528744       12.3625221010
  C        10.4052313641        4.9551566922        5.3992420432
  H         9.9476845165        6.6829381503        6.5696543846
  C        10.8764627378        3.1753230796        4.3280048087
  H        13.3754983307        3.2103325252       11.1413078600
  H        12.7427408613        1.6476970315       10.5531516364
  C        12.1151992761        2.1647688719       12.4835780806
  C         7.8913625210        8.0909505897       12.6141595854
  C         7.3297432354        5.8900632663       13.4910098471
  C        10.9445399167        5.6347923407        4.1780554219
  C        11.1615053445        4.2488848827        3.5125937573
  S        11.1808168067        1.6388205431        3.6928439143
  H        11.4913149451        2.9544122302       12.8697441289
  H        11.4937678425        1.2917424777       12.5710613876
  C        13.3070576330        1.9381168944       13.3798374310
  N         8.1665713221        9.0712633046       11.6925487241
  C         7.5490948716        8.5849690638       13.8766106172
  C         7.0844282480        6.3704653532       14.7710965774
  H         6.8925750343        4.8951647653       13.3603994373
  C        12.1869403145        6.4634020217        4.5586331122
  C         9.9355775081        6.5578569323        3.4435185066
  C        11.5267775902        3.8255906120        2.2463479598
  C        11.6441266431        2.4149518826        2.2060885035
  H        13.7236010188        2.8759256005       13.7125550277
  H        14.1644397039        1.6137183384       12.7755995577
  C        13.1930815350        1.1758539044       14.6489109408
  S         7.9672632636       10.5140174169       12.3897270294
  N         7.6041706567       10.0003108004       13.8855260982
  C         7.1760638852        7.7870101008       15.0077066630
  H         6.7770945281        5.6240582863       15.5364463378
  H        12.0153899001        7.0415422064        5.3865149837
  H        12.4276279568        7.1013504826        3.7062669366
  C        13.3982712831        5.6128007374        4.8975609182
  H         9.4893569444        7.3138607743        4.0808218039
  H        10.4295681368        6.9809542285        2.5945697428
  C         8.6962606531        5.7738632272        2.9411026961
  H        11.6949654906        4.5449302810        1.4436939557
  C        11.9883452609        1.6239911568        0.9580354471
  H        12.8252867361        0.1479305089       14.4092901925
  H        14.1584741551        0.9989748108       15.0760377504
  C        12.2236201759        1.7648248666       15.7190171145
  C         6.9942415503        8.4544992926       16.3053214187
  H        13.2162074377        5.2086887064        5.9139477616
  H        13.5985509280        4.7544873882        4.2612624515
  C        14.6442030326        6.4326197151        5.0680009197
  H         8.0074723202        5.4366473694        3.7478371363
  H         8.9996098900        4.8211330875        2.4723378714
  C         7.9024148146        6.6741223765        1.9892939822
  C        12.0032920616        0.2425695969        0.7649496164
  C        12.3627980457        2.4386676372       -0.2466415697
  H        11.5037552582        0.9730932698       15.8781148909
  H        11.6390952483        2.6177921055       15.2950001687
  C        13.0345425010        2.1197973832       16.9597533451
  H         7.1209327943        9.5265787414       16.3247812211
  C         6.8058884030        7.9908865152       17.5892079504
  H        14.4831827457        7.2316210589        5.7578839648
  H        14.9756391154        6.7340600608        4.0804148366
  C        15.8126386764        5.6241720545        5.6288825645
  H         7.5867490832        7.5933555777        2.4447664357
  H         8.6042971281        6.9722397326        1.1761196726
  C         6.7990478108        5.9125887425        1.3347462697
  N        11.7931859940       -0.6715964610        1.7690876565
  C        12.2127180276       -0.3709494647       -0.4582064261
  C        12.7049434595        1.8052519889       -1.4580099550
  H        12.4276602074        3.5614994666       -0.1517157885
  H        13.7650126806        2.9493465310       16.8291134313
  H        13.5538927127        1.2964778867       17.3425068521
  H        12.4047692545        2.4392357137       17.7426270684
  S         6.4519210602        6.3395685309       17.9963840313
  C         6.7292513028        8.9539759574       18.6728292745
  H        15.5741009755        4.7689210867        6.2285283469
  H        16.3206117123        5.2577463423        4.7342952211
  C        16.7654332343        6.4307242493        6.5455766690
  H         6.8490832991        4.9417203182        1.6843240971
  H         6.9928191419        5.8366534819        0.2546215136
  C         5.4645330554        6.5883840853        1.4801596843
  S        11.7519821640       -2.1380799407        1.1370534838
  N        12.0823375005       -1.7591527609       -0.3888400641
  C        12.6517314791        0.3330224422       -1.5796015778
  H        12.9602215246        2.3968618625       -2.3268660115
  C         6.3129258631        6.9878943432       19.6661227358
  N         6.3016496134        8.3418635244       19.7589745601
  O         6.7695453492       10.1605512883       18.5294834684
  H        17.2583677749        7.0598331400        5.7682997243
  H        16.2454974546        7.0384417755        7.2126127290
  C        17.8754103904        5.5745892942        7.1763348763
  H         4.6843129992        5.8010097591        1.1854203698
  H         5.2556109869        6.9715671128        2.5188809040
  C         5.3672057861        7.8389679019        0.5629744316
  C        12.8797787054       -0.4046439359       -2.7728131637
  S         5.9268762787        6.0594619335       21.1517844327
  C         6.3395402021        9.0405543228       21.0581141516
  H        17.5368610129        5.1957505415        8.1932925349
  H        17.9684692796        4.7303650691        6.4407795473
  C        19.2754156309        6.3013653895        7.3183510041
  H         5.5571111138        7.4410513651       -0.4399975421
  H         6.1636964401        8.5333967499        0.8582656671
  C         4.1442720014        8.6193999950        0.6523274252
  H        12.7733051906       -1.4416812673       -2.7003791673
  C        13.3170135957       -0.0255094783       -4.0130642779
  H         5.7397208717        8.5699387595       21.8917313961
  H         5.9358338985       10.0588593032       21.0904593060
  C         7.7861257662        9.3002693131       21.5136238194
  H        19.7942686406        5.7753609545        8.0711348849
  H        19.2899017823        7.3822854099        7.6042147825
  C        20.0489229689        6.0173909875        6.0049802438
  H         3.7199167069        8.3856428034       -0.3029649663
  H         3.4710161571        8.2970494109        1.4654399078
  C         4.1749817579       10.2101551182        0.7275161993
  S        13.7567033283        1.5445001832       -4.4838252637
  C        13.4189098215       -1.0641408831       -5.0316103172
  H         8.2521487415        8.3196049458       21.8156849110
  H         7.8668849098        9.9936227272       22.3358436484
  H         8.5075210335        9.6674697403       20.7499416111
  H        20.5288382674        5.0939177043        6.1471672822
  H        19.3524454507        5.9430405658        5.1784064199
  H        20.7652854218        6.8116815278        5.7343508905
  H         4.5872900121       10.7119568659       -0.1782668102
  H         3.2430220206       10.6000730152        1.0777682981
  H         4.8822820171       10.5142046910        1.4841490258
  C        14.1370111696        0.8775936079       -6.0245041426
  N        13.9198340989       -0.4682045668       -6.1329143736
  O        13.1314623677       -2.2661047303       -4.8389075611
  S        14.6492234565        1.7528148691       -7.4490959103
  C        13.8591575263       -1.1850105427       -7.4169998566
  H        14.2125503898       -2.1968219253       -7.2116706265
  H        14.6308565693       -0.7766823594       -8.0978348986
  C        12.4736706167       -0.9698493162       -8.0912682932
  H        11.5914386717       -0.8685725276       -7.3199745645
  H        12.2359680536       -1.7163040941       -8.8072227947
  H        12.6674435012       -0.0277975630       -8.5904241212
  H        -3.6214293904       14.5580038280       16.4354727323
  C        -3.1725150589       13.5639234035       16.4095902612
  H        -4.0614078922       12.9486542307       16.7112651716
  C        -2.0124619785       13.3471701297       17.3111051082
  C        -2.6909607491       13.2400761484       14.9996986880
  C        -2.3712523349       13.9237274117       18.7365979805
  H        -1.9461174511       12.2424145466       17.3291065541
  H        -1.0477623694       13.7028168660       16.9548464291
  H        -1.6439606350       13.4793544914       14.7473058649
  H        -2.9023734607       12.1341592521       14.8634570285
  H        -3.3446261524       13.7073004828       14.3008125526
  C        -2.0545053317       12.9361683111       19.8633542068
  H        -3.4224531779       14.1310890664       18.6960248760
  H        -1.8268023493       14.8370214323       19.0816575011
  C        -2.1911353848       13.5716903697       21.2855646236
  H        -2.7859442447       12.1392518100       19.7280703646
  H        -1.0379758976       12.5959661784       19.6595797863
  C        -1.1832996776       12.8976559030       22.2193413271
  H        -3.1996076686       13.4107507337       21.6386778133
  H        -2.0982835127       14.6312824417       21.1654378824
  C         0.0184888651       13.7753268153       22.4464518497
  H        -1.7286495626       12.6084278474       23.1382650752
  H        -0.8197254997       11.9970706457       21.8128788032
  C         1.2710077579       13.0823479185       23.1018157944
  H         0.4225663165       14.3149111159       21.5526190489
  H        -0.3170603829       14.6369697346       23.0878374133
  C         1.7584802732       11.7920117116       22.4075079259
  C         0.8926297302       12.2965517840       24.2467849061
  C         2.3762326633       14.1119491117       23.4324420872
  C         1.5545814115       10.6224359444       23.1229057275
  C         2.3612294227       11.6057104220       21.1379987780
  C         1.0070082882       10.9439747272       24.3912646207
  C         0.2878418055       12.9904239493       25.3664752116
  H         2.4821166865       14.6975103865       22.5124882412
  H         2.0271417065       14.8228929507       24.2239701987
  C         3.7406618208       13.4158072890       23.6992522169
  S         2.0998522514        9.2317846622       22.2943611362
  C         2.4884704676       10.2535890886       20.9184343530
  H         2.5063590439       12.5059344206       20.5449730009
  C         0.5804034378       10.3604042969       25.5402576209
  H         0.0792673508       14.0411105803       25.2640530439
  C         0.0112426654       12.3931833136       26.5153542594
  H         4.0530611008       12.7111872467       22.9005814196
  H         3.7956344910       12.6487316743       24.5386106163
  C         4.8480113067       14.4377227190       24.0386353476
  C         2.9847570041        9.6683683919       19.6217494799
  C         0.1004037720       11.0475106271       26.6736700631
  H         0.5721370107        9.2864243395       25.6294539071
  C        -0.3561318466       12.7876750411       27.7820078048
  H         5.5640639211       14.0434343419       24.8346704692
  H         4.4234870354       15.3089008598       24.5930451274
  C         5.7828602939       14.9679570858       22.9507697091
  C         3.0447365633        8.2643715378       19.2990064276
  C         3.3006291088       10.6537697642       18.4793409178
  C        -0.2580991172       10.3725295606       27.9637789534
  C        -0.4980637169       11.7348114403       28.6406299751
  S        -0.6218934183       14.3156985781       28.4585644062
  H         6.5832242259       15.5152005549       23.4681311111
  H         5.2512886076       15.6467497592       22.3573314136
  C         6.3935565271       13.7773875169       22.1080262991
  N         2.6650693246        7.2881258887       20.1838867930
  C         3.4161543415        7.7955626720       18.0293314188
  C         3.5929703538       10.1800614621       17.2071126052
  H         3.2954457105       11.6783287681       18.6819302720
  C         0.8088893660        9.5618453670       28.7110163742
  C        -1.5658041495        9.5595378786       27.7523145560
  C        -0.9767967761       12.1775276109       29.8554662516
  C        -0.9891387536       13.5626166704       29.9331320787
  H         7.4407163085       13.9960680350       22.0207018355
  H         6.5049620039       12.8002777612       22.6877673897
  C         5.8097854773       13.5690973594       20.6944261332
  S         2.6571316390        5.8472971839       19.3308670047
  N         3.1715264201        6.4063442873       17.8776384604
  C         3.6779921040        8.6841824047       16.9499709164
  H         3.8502162676       10.8378903599       16.3451032310
  H         1.0464292587        8.6255015745       28.2094941924
  H         0.3941450144        9.1971274780       29.6834832401
  C         2.1177630133       10.3009479209       29.0258321084
  H        -1.2502784624        8.8214827076       27.0463065654
  H        -1.9174177381        9.1396086885       28.6461797914
  C        -2.7456630450       10.3721057490       27.1587280199
  H        -1.2579519896       11.4179966987       30.5500329635
  C        -1.3623272660       14.3477649069       31.1689089871
  H         5.1314282511       14.4131563259       20.5220497013
  H         5.1255898055       12.6980765321       20.6132123455
  C         6.9304486829       13.2502776797       19.6663652559
  C         3.7430700505        8.0349465728       15.6744891755
  H         2.4415135585       10.8962653552       28.1614507210
  H         1.9253471333       11.0032985784       29.7902322035
  C         3.2334680921        9.3806212227       29.4962026737
  H        -2.5084493002       10.6310146917       26.1406224147
  H        -2.9011541981       11.3015989194       27.6081144772
  C        -4.1713308137        9.6336104438       26.9840288896
  C        -1.3117172718       15.7525737876       31.3319740415
  C        -1.5599966275       13.5900891793       32.3880203243
  H         7.8233887232       13.9336274659       19.9354246121
  H         7.2506675499       12.1875916511       19.6131871257
  C         6.3849250976       13.6284161035       18.2320209564
  H         4.0364242681        7.0362157523       15.7746721294
  C         3.9366986342        8.4741217584       14.3679751103
  H         3.3659648591        8.6867694293       28.6367255966
  H         2.9256681701        8.7482236464       30.3762024325
  C         4.6208632373       10.0450643971       29.6740524573
  H        -4.1078732991        8.7862678928       26.2780048483
  H        -4.4836497547        9.2772711761       28.0009207457
  C        -5.2186819703       10.4694052886       26.2882930707
  N        -1.0840089090       16.6910191196       30.3460729119
  C        -1.6024729426       16.3687113258       32.5134616108
  C        -1.8538335600       14.1969788625       33.5932990595
  H        -1.7107336634       12.5178207321       32.3191093822
  H         6.7242858181       12.9036706391       17.4713682663
  H         5.3570376208       13.4776605241       18.0845830935
  H         6.7401604411       14.6507689977       17.9741331149
  S         4.1551815454       10.1095383890       13.8678588999
  C         4.0752030703        7.4271939237       13.2978340717
  H         4.7717173885       10.6588126499       28.8104602112
  H         4.7240937754       10.6962923547       30.5213814872
  C         5.8562289424        9.1266424140       29.6469243094
  H        -4.7684276146       10.9381842976       25.3733945255
  H        -5.5664297077       11.2728543873       26.9722408271
  C        -6.3309854304        9.5900413217       25.7109454152
  S        -1.2289663891       18.1867432583       30.9243557917
  N        -1.5402363860       17.7416877787       32.4798250214
  C        -1.8696798119       15.6810647710       33.7526420179
  H        -2.0699479425       13.6072192653       34.4755457503
  C         4.5536526819        9.3897625675       12.3237360061
  N         4.4172551628        8.0552554990       12.1329722487
  O         4.0130009030        6.2351055792       13.5372777626
  H         6.7219188498        9.6700398569       30.0020269015
  H         5.9986646343        8.7249538875       28.6138798931
  C         5.7234460709        7.9367978212       30.5890831160
  H        -5.8655401813        8.7777408348       25.1317680109
  H        -6.8020132759        9.1005956087       26.5507098066
  C        -7.3035673656       10.4088374219       24.9283481694
  C        -2.0519017367       16.4729488113       34.9007344301
  S         4.9346878519       10.2905480492       10.9610063819
  C         4.6062839049        7.2955364504       10.8963763568
  H         5.9945482236        8.1562355839       31.6505033741
  H         4.8029224851        7.3774605099       30.5207802004
  C         6.6936871345        6.8500112688       30.2136040537
  H        -6.9822212355       10.3235903369       23.8904624416
  H        -7.3847359510       11.4465752197       25.2506760286
  C        -8.7239996684        9.8612338025       25.1143179936
  H        -1.7132169282       17.5110395021       34.8485632814
  C        -2.5639462565       16.1330695925       36.1165897337
  H         5.2996436109        7.7087097819       10.1473494392
  H         5.0341442871        6.2970937771       11.1197518172
  C         3.2090104179        6.9911649553       10.3609070590
  H         7.5939696316        7.4126470499       30.0050690754
  H         6.3497849024        6.3395570520       29.3196984354
  C         7.0146396203        5.9518948896       31.3856535676
  H        -9.2387032370        9.9380289418       24.2460959821
  H        -8.5841319740        8.8203075365       25.1874132987
  C        -9.5340086980       10.3444701357       26.3410382316
  S        -3.0471245950       14.6275880210       36.6308316118
  C        -2.7651120444       17.2233695151       37.1655408032
  H         3.2497518920        6.0850564160        9.8061431149
  H         2.4558920064        6.7456647458       11.1125179701
  H         2.7625066917        7.7535676062        9.7688586553
  H         7.3995133878        5.0157616124       30.9865594222
  H         6.1435657406        5.8525388623       31.9672421562
  H         7.8019254116        6.4604737872       31.9334440353
  H       -10.5176637396        9.8697841844       26.4820737343
  H        -9.6751642628       11.3207047062       26.0149835149
  H        -8.8462787287       10.4035181045       27.2254861739
  C        -3.4285147446       15.3550760907       38.1768930297
  N        -3.3260341749       16.6985077858       38.2599772184
  O        -2.4157425193       18.3655079411       36.9878849754
  S        -3.9591509668       14.4267212098       39.6136671165
  C        -3.6548069613       17.5262349877       39.4202008414
  H        -3.9395149593       18.5739794349       39.1586685250
  H        -4.5490333111       17.0997038649       39.9199339672
  C        -2.5018105936       17.6027514351       40.3940391401
  H        -2.4875379347       18.5550766345       40.9221701063
  H        -2.4740202930       16.8226087208       41.1756371282
  H        -1.5502820405       17.4156139271       39.8444440455
