352
i=
  H         3.3237661312        4.1542222840       11.8099166224
  C         3.1606223619        3.1652889326       12.1800963597
  H         2.4155452777        3.2964618161       12.9433819421
  C         2.6539358352        2.2960136956       11.0006960955
  C         4.4114543490        2.6099208709       12.7508729559
  C         3.6019151263        2.5290168531        9.8154632171
  H         1.5900581770        2.6962368911       10.8017570400
  H         2.5811058604        1.2414584017       11.2331263008
  H         5.2141136290        3.3651780303       12.7117277370
  H         4.6541271039        1.5864281124       12.4971606309
  H         4.2314550183        2.4623425450       13.8435229764
  C         4.4750260744        1.3203855134        9.5060508768
  H         3.0167248397        2.9471978406        8.9665425239
  H         4.3605044457        3.2673436080       10.0420929328
  C         5.4864112291        1.3694290855        8.3357937370
  H         3.7529655352        0.5605048919        9.3681077401
  H         5.0235720621        0.9366781860       10.3443281650
  C         6.6280466073        2.3712576773        8.5731262243
  H         5.0060614629        1.8689443327        7.5243022883
  H         5.7587101669        0.4559631868        7.7518862720
  C         7.8635292216        1.7210073336        9.1146326419
  H         6.8490476580        2.9521542293        7.6312201070
  H         6.3649516930        3.0819625555        9.3496727097
  C         9.0997537068        2.6501297068        9.3578679836
  H         8.2065152960        0.8280632862        8.4941943601
  H         7.7166002166        1.4604590049       10.1573183223
  C         8.6241198937        4.0410733538        9.9872889904
  C         9.4730886668        3.2950415973        8.0599747399
  C        10.3161067208        2.0101274747       10.1567811785
  C         8.7486307690        5.1089837900        9.0844891332
  C         8.1438409830        4.3706070994       11.2643109463
  C         9.3378529373        4.6609507606        7.9078282257
  C         9.9249754193        2.6860307071        6.8501096656
  H         9.9142873022        1.4055987686       10.9816009171
  H        10.8775595285        1.2367623432        9.5297340131
  C        11.4400347753        2.9959178296       10.6519162902
  S         8.2517351280        6.5963865129        9.7733286130
  C         8.0143990325        5.7902544417       11.3592061631
  H         8.1809909136        3.6062771558       12.0524852387
  C         9.7301726963        5.2703014519        6.7175319241
  H        10.0599459885        1.5899228926        6.8934204677
  C        10.2416968889        3.2802295700        5.6800339270
  H        10.9807236483        3.9197644261       11.1472513356
  H        12.0095933232        3.4395308845        9.8296105905
  C        12.3988772042        2.2906691999       11.5996462816
  C         7.6976749829        6.5392278312       12.6640617580
  C        10.1873455924        4.5975084477        5.5395623813
  H         9.6951083101        6.3380315986        6.5622877938
  C        10.7259926207        2.8808985159        4.4476748927
  H        13.3609991393        2.8029933320       11.5087719479
  H        12.5484746951        1.2517548000       11.4266636727
  C        11.8856074044        2.4924162027       13.0502908625
  C         7.5886994854        7.8989305325       12.7733275836
  C         7.3728890616        5.7590787761       13.8321788071
  C        10.6045323788        5.3143606188        4.2778507790
  C        10.9172438845        3.9579952860        3.6247185192
  S        10.9023912601        1.3838558085        3.6693973798
  H        11.8045092952        3.5325408518       13.2102240107
  H        10.8201121004        2.2560121741       13.1889042315
  C        12.5944534558        1.6946240641       14.1282602933
  N         7.7850850933        8.8030756118       11.7463172247
  C         7.3278142574        8.5100645751       13.9838085168
  C         7.0276194119        6.2992508410       15.0795788985
  H         7.4025593266        4.7063753894       13.6926221356
  C        11.8361571833        6.1549946649        4.5040553416
  C         9.3904041400        6.0161777337        3.6305229938
  C        11.4702650618        3.5445061842        2.3711417419
  C        11.4432960233        2.1750599463        2.2721187513
  H        13.6319881200        1.9825959059       14.1190588992
  H        12.4216540165        0.6178742832       14.1155950457
  C        12.0946337221        2.0951353641       15.5140665637
  S         7.8577928926       10.2391184281       12.3475208097
  N         7.5517269511        9.8553809576       13.8968372284
  C         7.0614704723        7.7811507765       15.1708306346
  H         6.8620751040        5.6389594707       15.9243532543
  H        11.4381749168        7.1525425244        4.8520690425
  H        12.2767604725        6.4158149735        3.5602570387
  C        12.9527216338        5.5492037355        5.3615718946
  H         8.7128815529        6.4639853226        4.3333290505
  H         9.7555772112        6.8405260783        3.0539555268
  C         8.6292444212        5.0404286866        2.6960673259
  H        11.8427314362        4.2336808859        1.6224148087
  C        11.6807986489        1.3057200965        1.0895221158
  H        11.7440484027        3.1262840626       15.4016598204
  H        11.2942275673        1.3506501435       15.8142876351
  C        13.1394746258        2.1450820164       16.6322218417
  C         6.8968286447        8.5335522171       16.3592718369
  H        12.5739405740        5.1542856517        6.3146536964
  H        13.3573772018        4.7098119246        4.8497614517
  C        14.1494212108        6.4619130910        5.7743337289
  H         8.4372070123        4.1174781767        3.2041774199
  H         9.2179848844        4.9519319809        1.7701478939
  C         7.2142603355        5.5799138669        2.3363449992
  C        11.5996372234       -0.1128872593        0.9812421730
  C        12.1011177565        2.0388663331       -0.1935712457
  H        14.0181530667        2.7034030417       16.3225573193
  H        13.3517176914        1.0632429647       16.7309380357
  C        12.5620586909        2.6376277859       17.9662420867
  H         7.0442353839        9.6529185366       16.2925960993
  C         6.4028542554        8.2737835668       17.5822259070
  H        13.6373166322        7.2340395166        6.3976439489
  H        14.6888025726        6.8967799209        4.9474496784
  C        15.0940098015        5.6222985306        6.5563549363
  H         6.5244769669        4.7865975589        2.0464562897
  H         6.7578025152        6.1320210287        3.1121576324
  C         7.2310859900        6.5509233212        1.2448816669
  N        11.3353085171       -1.0719500241        1.9906838789
  C        11.8932873695       -0.7360341170       -0.2295411381
  C        12.3279720223        1.3857727558       -1.3928963346
  H        12.1154434909        3.1025994517       -0.1843388482
  H        13.3632443179        2.8396894666       18.6819745595
  H        11.8212131099        1.9648642329       18.3456915350
  H        12.0202431965        3.5195909679       17.7451301358
  S         5.9047639617        6.6989259896       18.2108997302
  C         6.3227124791        9.4270992893       18.5414461784
  H        15.2401429510        6.0843449969        7.4534363163
  H        14.7103596758        4.6622866331        6.7966243575
  C        16.5733779765        5.4789739681        5.9962264654
  H         7.6581299557        5.9577793709        0.4053833460
  H         7.8607213188        7.4371359882        1.4968186321
  C         5.7986110753        6.9885774328        0.8889668652
  S        11.3359456766       -2.6068724101        1.3516043089
  N        11.8341302273       -2.1406774624       -0.1377400460
  C        12.3336274704       -0.0708304519       -1.3879833758
  H        12.4938438586        1.9855058584       -2.3078793007
  C         5.6856158824        7.6387672429       19.7582798262
  N         5.8263978509        8.9622092196       19.7235343381
  O         6.5195858127       10.5933606633       18.1811721232
  H        16.5519375969        4.9032849206        5.0624333569
  H        17.0130389304        6.4641686406        5.6498373914
  C        17.5145058377        4.7757559415        7.0214105789
  H         5.7789706888        7.3590117884       -0.1326720578
  H         5.0009160052        6.1946177615        0.8809455764
  C         5.4899356556        8.2347024390        1.7981074722
  C        12.5966808203       -0.8188829911       -2.5735971578
  S         5.2821104407        6.9168627589       21.3018635198
  C         5.8105207882        9.7615402373       20.9531970907
  H        16.9019116424        4.4527665208        7.8065134066
  H        18.0183464841        3.8945695297        6.6074037619
  C        18.4931923559        5.7830129597        7.6777883981
  H         6.2908281310        8.9895854279        1.6412148443
  H         5.5683401270        7.9322431844        2.7836319186
  C         4.1963841755        8.9894993361        1.6168792872
  H        12.4367532343       -1.9077043148       -2.6220072271
  C        13.1231107617       -0.5356738277       -3.7542407870
  H         4.9402449357        9.4141290936       21.5997531504
  H         5.4998552053       10.8103675245       20.7520098463
  C         7.1594542574        9.7486340678       21.6007669991
  H        18.8766932125        5.2931830535        8.6035133475
  H        18.0110392021        6.7595875549        7.9266105847
  C        19.7701113427        5.9142722853        6.7271561529
  H         4.3863650197        9.9195394126        1.0178096975
  H         3.5326047120        8.3392958813        1.0924611500
  C         3.6338953448        9.4427597876        2.8853075619
  S        13.6780739108        1.0177916285       -4.2915231492
  C        13.0289003095       -1.5790115109       -4.7999680559
  H         7.7491452349        9.1022631678       21.0070927618
  H         7.0344101402        9.3394521716       22.6186018344
  H         7.7279893214       10.6783113077       21.6100288081
  H        19.5213163630        6.5342255571        5.9500737362
  H        20.5512211195        6.4450025912        7.2366071703
  H        20.2698795547        4.9944763375        6.3357458325
  H         2.9673815653        8.6867551083        3.3441478490
  H         4.4132929198        9.6433925982        3.6083807361
  H         3.1653854033       10.3896068691        2.7675148535
  C        14.1358199444        0.1587476681       -5.8487000013
  N        13.7409804272       -1.1113146304       -5.8732553764
  O        12.6758964840       -2.7441787969       -4.6640265104
  S        15.1977672681        0.6990491826       -7.1157727342
  C        13.7587014068       -2.0325815227       -7.0365679529
  H        13.7633681589       -3.0778156433       -6.6715972456
  H        14.6633581432       -1.9586332261       -7.7242254541
  C        12.5203127279       -1.7615238803       -7.8787912304
  H        12.4259358589       -0.8026092675       -8.1942045765
  H        11.6245226207       -2.0624340377       -7.3206744743
  H        12.4161599503       -2.4539315029       -8.7123760778
  H        -1.3202496468       13.4648052298       17.3931151048
  C        -1.8695791847       14.2370976054       16.9502623538
  H        -1.1261290203       14.9368189934       16.5768331233
  C        -2.7562732166       14.9709920756       18.0191044916
  C        -2.5823669616       13.7033985309       15.6816334533
  C        -3.3358936819       13.9222191932       18.9221054982
  H        -2.1530249069       15.6775720385       18.5616461810
  H        -3.5784739532       15.5544999798       17.6024821506
  H        -2.2548520299       12.6679809673       15.6527650927
  H        -3.6970647624       13.8060136791       15.7236446401
  H        -2.2172124889       14.1669308805       14.7235035819
  C        -2.3738670004       13.3988772328       20.0366537096
  H        -3.6563637598       13.0924552054       18.3939496162
  H        -4.1836747470       14.3488034368       19.4604813951
  C        -2.9717907794       13.4094519800       21.4567688260
  H        -2.0370153007       12.3891246211       19.8600715791
  H        -1.4829752180       13.9813702021       20.0232126847
  C        -1.8493181875       12.7746223738       22.3499102368
  H        -3.8995119877       12.9460272127       21.5555358957
  H        -3.1523935284       14.4615130756       21.7343629760
  C        -0.6492730731       13.6719258536       22.6769664084
  H        -2.3744852418       12.4829059544       23.3216767280
  H        -1.5408150887       11.8417184227       21.9151544678
  C         0.6374607023       13.0683969725       23.2977682319
  H        -0.2943112117       14.1114212019       21.8099047077
  H        -0.8676011924       14.5447626366       23.3394898360
  C         1.1332378943       11.7196735956       22.5801320062
  C         0.3043536565       12.3411142188       24.5981935345
  C         1.7897407103       14.1027444647       23.4183337812
  C         1.0295984183       10.6293275666       23.4307324046
  C         1.6164461979       11.3019906058       21.3482586956
  C         0.4424755074       10.9768488730       24.7009463171
  C        -0.3420164009       12.8966717748       25.7302332916
  H         1.9493932678       14.7319650209       22.5791785100
  H         1.5378303604       14.7235442496       24.2339563472
  C         3.1907846886       13.4163199635       23.7716267650
  S         1.6056216436        9.1186916772       22.7958766701
  C         1.8973587179        9.9776588512       21.2874566416
  H         1.6840348732       12.0211497820       20.5417270801
  C        -0.0078436868       10.3143040616       25.8138078906
  H        -0.4216223942       13.9756987489       25.8304643114
  C        -0.6320219091       12.2630810955       26.8684648616
  H         3.4580076869       12.6844004571       23.0605629204
  H         3.0124066677       12.9413827973       24.6921145005
  C         4.4330725565       14.3500553848       23.8403524126
  C         2.3725210460        9.2769733827       19.9754230503
  C        -0.4832025380       10.9311003636       26.9575478781
  H        -0.0944866987        9.2561622595       25.7647329030
  C        -0.9789339191       12.6181050833       28.1510230525
  H         5.2119762270       13.7400959272       24.2948292530
  H         4.2361924689       15.1665311273       24.5037428004
  C         4.8983109967       14.7803009448       22.4547550856
  C         2.3025433954        7.9419150380       19.7291163803
  C         2.8525920763       10.1566583461       18.8117610894
  C        -0.8329386181       10.2434497537       28.2442870003
  C        -1.1494884439       11.4751722716       28.9701051178
  S        -1.3273550403       14.0716300410       28.9732388614
  H         5.4800270948       15.6927760855       22.6362516693
  H         4.0902277333       15.1909400417       21.8559255654
  C         5.6819935808       13.6829645941       21.7050889141
  N         1.8522789662        6.9393029563       20.5561305587
  C         2.6328100091        7.4370326580       18.4517951983
  C         3.0147238243        9.6535310316       17.5491967490
  H         2.8564485857       11.2250019623       18.9889872529
  C         0.3123747226        9.4564283533       28.9758152381
  C        -2.0809636900        9.3935864786       27.9981689252
  C        -1.5532811275       11.7956145373       30.2933313834
  C        -1.7733527740       13.1723325163       30.4321238505
  H         6.7112210351       13.8715321790       21.9377411419
  H         5.4853551970       12.7188667022       22.1711552341
  C         5.4677191688       13.6484585225       20.2146431371
  S         2.0315172362        5.5518364540       19.8187050084
  N         2.4998899068        6.0406059513       18.3935665116
  C         2.9489314314        8.1840540818       17.2915140298
  H         3.2763109941       10.3952406199       16.7916389904
  H         0.7904949985        8.9179488160       28.2094118286
  H        -0.1553825951        8.8030827616       29.6423617926
  C         1.3920018722       10.2348418835       29.7496211160
  H        -1.8711746553        8.6689250110       27.1807641456
  H        -2.2747167257        8.8836204151       29.0056316902
  C        -3.4364850281       10.1458025985       27.7251853889
  H        -1.6851345661       11.0232234870       31.0249504275
  C        -2.1129863796       13.8966570476       31.6692501336
  H         4.9166325286       14.5425444631       19.9257141826
  H         4.9091775290       12.7814589142       19.9614062671
  C         6.8789036344       13.6471809614       19.6184217080
  C         3.2025159751        7.5371739968       16.0842599365
  H         1.7251966997       10.9639691080       28.9974316314
  H         1.0482605210       10.7550667360       30.6223248746
  C         2.6664647014        9.3436280729       30.0012847849
  H        -3.3528312240       11.0087007816       27.0545082873
  H        -3.8161321229       10.6410022998       28.5573184421
  C        -4.6294230884        9.2682106749       27.5434107225
  C        -2.0814893751       15.2702882472       31.8911692425
  C        -2.3897979297       13.0806791550       32.8889325939
  H         7.3734858466       14.5626675398       19.9571241241
  H         7.4293637463       12.7374404637       19.9344522345
  C         6.8559701808       13.8101619176       18.0861202546
  H         3.0225740399        6.5068863828       16.0633981555
  C         3.5761966933        7.9833991534       14.8676238222
  H         3.2516815332        9.2171343344       29.1189030109
  H         2.3584871058        8.3784163845       30.3221246972
  C         3.5308575703        9.9995107887       31.0313225415
  H        -4.3663981251        8.4698636323       26.8562971796
  H        -4.8743650382        8.6931156167       28.3991226288
  C        -5.8241280225       10.0736292519       27.1628051168
  N        -1.8578853839       16.2090123893       30.9325532351
  C        -2.4967473485       15.8197235064       33.1197928472
  C        -2.8235923514       13.7020674762       34.1015703133
  H        -2.3882196673       11.9900561906       32.8471766477
  H         7.6361190164       14.5295681003       17.7444340846
  H         7.0031439259       12.9077001022       17.6276956887
  H         5.9059422317       14.1658002466       17.6827041081
  S         3.7310883864        9.6273063509       14.3884217518
  C         3.7316121210        7.0511634266       13.7587509690
  H         3.5919205004       11.0536476222       30.7854883990
  H         3.1566461323        9.8815288581       32.0710808166
  C         4.9286840266        9.5180948431       31.0409435493
  H        -5.7018515620       11.1601275867       27.4869366283
  H        -6.7305960865        9.5080457468       27.4353211375
  C        -5.8475867242       10.3751405187       25.7010985145
  S        -1.9075671600       17.6998085148       31.6105938497
  N        -2.4792561188       17.2449377055       33.0585320764
  C        -2.8966480572       15.1623164058       34.2663136983
  H        -2.9848992415       13.1039511206       34.9922520959
  C         4.1996063314        9.0526722097       12.7809419864
  N         4.1320385726        7.7196432562       12.6540586416
  O         3.5642749742        5.8389335145       13.8440149556
  H         5.5322767576       10.1574916184       31.6368137561
  H         5.3961317703        9.7391011889       30.0208728360
  C         5.1052504232        8.0100528358       31.3867859927
  H        -4.9908538061       10.8918134911       25.3543118414
  H        -5.8317410122        9.4556639878       25.1369259516
  C        -7.0310446257       11.1289297678       25.0127359278
  C        -3.1397234292       15.9233930508       35.5029880247
  S         4.4292710044        9.9619952667       11.3498607308
  C         4.2619195846        7.0422512205       11.3125161378
  H         5.3272807376        7.7970522188       32.3865429251
  H         4.1468479465        7.5048995262       31.3643905389
  C         6.0210602050        7.2705439084       30.4802699584
  H        -6.6909439243       11.4317054016       23.9947769486
  H        -7.0998132912       12.1470787738       25.4068394663
  C        -8.3602940069       10.4420321547       25.0159558062
  H        -2.8846643450       16.9598976454       35.4267411899
  C        -3.7070930044       15.5539153758       36.6874648201
  H         4.9989306146        7.5369890235       10.6412490319
  H         4.7524176309        6.0431076973       11.4235883969
  C         2.9004406207        6.9870080368       10.6234294852
  H         6.9343702429        7.7993980065       30.6859006902
  H         5.8642522607        7.4432946363       29.4652160226
  C         6.3546116423        5.8106963546       30.8208478513
  H        -8.9870376451       10.9005004875       24.2324928921
  H        -8.0671428840        9.4525535399       24.7951233195
  C        -9.1036637944       10.6807155737       26.3250703723
  S        -4.4109872929       14.0354439069       37.1603109349
  C        -3.7181625368       16.6148638649       37.7380346989
  H         2.2007724835        7.7883401543       10.8063280208
  H         3.1383784535        7.1712872802        9.5885855235
  H         2.5431466767        5.9669539543       10.6444875153
  H         6.8348063954        5.8335487518       31.7761644916
  H         7.1347403531        5.4590672416       30.1848334478
  H         5.5387237289        5.1965204069       30.7158740845
  H        -8.5190714156       11.2048584168       27.0850110735
  H        -9.4905226360        9.8161476001       26.8053190267
  H       -10.1072933536       11.1575279895       26.1754512754
  C        -4.6442707609       14.7635370868       38.7398256930
  N        -4.3660319020       16.1209086187       38.7913097419
  O        -3.2784633922       17.7712448646       37.6340234204
  S        -5.4367362266       13.9726276643       40.0309272223
  C        -4.4181160459       16.8967973769       40.0401108572
  H        -4.5677866000       17.9325591313       39.8120094676
  H        -5.2172226890       16.7101395152       40.6808003503
  C        -3.1290339645       16.7891227239       40.8325990689
  H        -2.6527194604       15.8393124752       40.6621262663
  H        -2.4191601340       17.4892690990       40.5352538918
  H        -3.3631279451       16.9191944420       41.8922536765
