352
i=
  H         2.6428587566        0.8055439122       13.5410980954
  C         3.5465575858        1.3719436858       13.2550398486
  H         4.3043395054        0.7091440980       12.9225303486
  C         3.1882810537        2.2815775502       12.0616758600
  C         3.9702521049        2.1213631164       14.5257398601
  C         4.2055634631        2.4225030071       10.9404284510
  H         2.6903679713        3.1810880093       12.4298846611
  H         2.4795213855        1.7495263871       11.5554720793
  H         4.3840377925        1.4029695916       15.2243070788
  H         3.0549291903        2.5207634155       14.9151537559
  H         4.7768903063        2.8988637469       14.3471952714
  C         4.7545413719        1.1313256029       10.3287461659
  H         3.8271354384        3.0722672180       10.1530195365
  H         5.0890231507        2.9270636353       11.4250834706
  C         5.1818201852        1.2142008488        8.8328267786
  H         3.8845402026        0.4423814829       10.2002488562
  H         5.4947875755        0.5627051941       10.9073642404
  C         6.3801319918        2.2274697102        8.6192737482
  H         4.4012020629        1.6008027050        8.2356552780
  H         5.3412576300        0.2294279420        8.3854162407
  C         7.6641132386        1.4685743121        8.8314187238
  H         6.3211514379        2.4800455457        7.5403948233
  H         6.3296482782        3.1109862507        9.2808625110
  C         8.8921370430        2.3779890163        9.0949988413
  H         7.8649131374        0.7149077659        8.1017576014
  H         7.6332558977        0.7833089482        9.7095180717
  C         8.5943676007        3.6891394012        9.8334068747
  C         9.2993088581        3.1158357967        7.8187530015
  C        10.0504752801        1.6084072212        9.8441555357
  C         8.7545325646        4.8100370061        9.0182285792
  C         8.2164191344        4.1004680339       11.1125116451
  C         9.2118625370        4.4808478475        7.7657114184
  C         9.6991287497        2.5345798632        6.6294290823
  H         9.6208429569        1.2874606674       10.8222792355
  H        10.2488377226        0.6860665340        9.3274654506
  C        11.2981113922        2.3578170778       10.1854670013
  S         8.3674972812        6.2509960220        9.7763026132
  C         8.0554807138        5.4452924018       11.2647341555
  H         8.0956165359        3.3663982992       11.8936802547
  C         9.6363678785        5.1817620624        6.6201073775
  H         9.8253155792        1.4731399661        6.6023196073
  C        10.0871075389        3.1974224536        5.5031663578
  H        11.0810543116        3.2365126168       10.7592453771
  H        11.7243886310        2.6793552580        9.2338643651
  C        12.4620077765        1.5765669698       10.8674873770
  C         7.7152992432        6.1200242680       12.5609982658
  C        10.0567454094        4.5395876420        5.4174342454
  H         9.5385374406        6.2468062500        6.6519235855
  C        10.5183199659        2.8136927390        4.2006359249
  H        13.3668286159        2.2090049963       10.9877909347
  H        12.8185950719        0.7540843247       10.2861283789
  C        12.0812232975        1.2391677457       12.3264563042
  C         7.7121741769        7.5094959568       12.8048818594
  C         7.4554010490        5.2102567936       13.7665223825
  C        10.4154435239        5.2466457507        4.1812207555
  C        10.7495429794        3.9370603035        3.4090255349
  S        11.0564289270        1.3662764826        3.5009133723
  H        11.3142520684        1.8594416193       12.6489106788
  H        11.8416320717        0.1611881624       12.3804718243
  C        13.2392017800        1.4835208461       13.3160292465
  N         7.9247576130        8.5400474778       11.8352091690
  C         7.4608229203        8.0291636636       14.0794703456
  C         7.0572077280        5.7053680396       14.9691519115
  H         7.4556131464        4.1318755516       13.7474445215
  C        11.5464497398        6.2104499013        4.2762837519
  C         9.1587615181        5.9466677498        3.5557862315
  C        11.2641043120        3.6358829325        2.1775642908
  C        11.4761627809        2.2596432859        2.1285132308
  H        13.5141449169        2.4518800051       13.4120273864
  H        14.1160237357        0.9625078176       13.0024768171
  C        12.8772804576        0.9019160452       14.7114425186
  S         7.9263532316        9.9643499067       12.6029784272
  N         7.5482698420        9.4489137878       14.0759700063
  C         7.1027852587        7.2122891718       15.2208305465
  H         6.9048492860        4.9468035524       15.7666131109
  H        11.2465303453        7.0585211857        4.8977338055
  H        11.8304756175        6.6666232439        3.3173601331
  C        12.8179454471        5.6072522294        4.9555271889
  H         8.7045556759        6.6256105075        4.2410566947
  H         9.4866497917        6.6654408405        2.7657437339
  C         8.2127672727        4.9356876515        2.7813126029
  H        11.4932799215        4.4657368884        1.4917821376
  C        11.9057221598        1.5671268851        0.8653702419
  H        11.9514706873        0.2840885493       14.7820846175
  H        13.7068075516        0.1225820492       14.8814516085
  C        12.8896595086        1.9373235926       15.7816133680
  C         6.8986723465        7.8274589100       16.4860602433
  H        12.5049981477        5.2753817804        5.9726222598
  H        13.2302273800        4.7130422569        4.4873351933
  C        14.0160667227        6.5938991421        5.1258749750
  H         7.7041043101        4.3382224463        3.5029801348
  H         8.5829097675        4.2994819246        2.0276104576
  C         7.1074860888        5.7662658122        2.0760529877
  C        11.9285502142        0.2283367583        0.5892082633
  C        12.0522475831        2.4338537024       -0.3917294406
  H        12.4985334971        2.8297521263       15.3692399183
  H        13.9210726749        2.0947685017       16.0969126708
  C        12.0219035038        1.4860924524       16.9347142094
  H         6.9040732251        8.8986214207       16.2822121204
  C         6.6155227030        7.4045070102       17.7596316834
  H        13.5542407417        7.4498843020        5.5928444958
  H        14.3520516064        6.8605535281        4.1524142599
  C        15.1190409064        5.9211111353        6.0296161912
  H         7.3412237940        6.8753178743        2.3116517404
  H         7.2603489016        5.6272213637        0.9917992551
  C         5.6209498344        5.3990128628        2.4548485732
  N        11.6787130264       -0.7351543405        1.5810248191
  C        12.0901736345       -0.3385035002       -0.6692942455
  C        12.3943576474        1.9027101598       -1.6486733510
  H        11.7643698389        3.5175374308       -0.3354515238
  H        11.9907291827        2.3700508116       17.5515317698
  H        12.6627882728        0.6877732309       17.3511983358
  H        10.9822607337        1.2144047205       16.6747966173
  S         6.3580046645        5.7865819088       18.2601977476
  C         6.3793174679        8.4306587809       18.8203862143
  H        14.8643163052        6.1067851458        7.0981292407
  H        14.9612463814        4.8333434827        5.8791907554
  C        16.5700749225        6.1723225949        5.6060617145
  H         5.3870245754        5.3586520563        3.5655783978
  H         5.4793197428        4.2988984815        2.2562033673
  C         4.5397330047        6.2040077976        1.6664766022
  S        11.6558464855       -2.2299794853        0.8348026629
  N        11.9612348937       -1.7336815024       -0.6343868665
  C        12.5495159419        0.4169305015       -1.8247997512
  H        12.5092104251        2.5013316564       -2.5615963593
  C         5.9168876283        6.4605885556       19.8454957850
  N         5.9947857395        7.7946471744       19.9535738592
  O         6.5709312120        9.6479725166       18.5821614279
  H        16.8341728849        5.6383992646        4.7041334209
  H        16.7860061586        7.2614079318        5.3666597297
  C        17.3646950536        5.6523577493        6.7759623539
  H         4.7489108078        6.3263078815        0.6147382496
  H         3.6941945641        5.5779752828        1.7625022342
  C         4.1853209697        7.5804874448        2.2928714947
  C        12.8040822557       -0.2926703892       -3.0445519685
  S         5.4869904692        5.6499371554       21.3028337628
  C         5.9636133015        8.6130108334       21.1738866803
  H        17.3531602953        6.4337530293        7.5094254229
  H        16.9024425527        4.8163178517        7.2844505032
  C        18.8080782273        5.2740127463        6.4033516338
  H         4.6519368641        7.5827279756        3.2363978633
  H         3.1010084074        7.6067393547        2.5098344265
  C         4.5786862444        8.6922236907        1.4017652249
  H        12.3489354368       -1.2243172324       -3.1246179416
  C        13.4168957831        0.1723284273       -4.1786315421
  H         5.2302054718        8.1772079875       21.8776691650
  H         5.6176108147        9.6643940299       21.0758235492
  C         7.3148822273        8.6864783506       21.7712735502
  H        19.0174234279        5.4378650099        5.3998632711
  H        18.9037035378        4.2636157858        6.5743070344
  C        19.8146776297        5.9494492008        7.2494434106
  H         4.3366067951        9.6563904270        1.9158309056
  H         5.6906837668        8.6399443565        1.3117809217
  C         3.7498003204        8.6964169853        0.0107077652
  S        14.2095236556        1.7092134241       -4.4801011682
  C        13.4534018880       -0.7939694375       -5.2808542096
  H         7.6330314487        7.6720241439       22.1034050814
  H         7.3223029163        9.3655736322       22.6043801085
  H         7.9775269433        9.1099939198       21.0113337961
  H        20.8586950314        5.7129066485        6.9489187833
  H        19.5714794871        6.9873789034        7.4121708417
  H        19.7552098283        5.6334049742        8.2909157003
  H         3.4871669682        7.7718357292       -0.4603541725
  H         2.8013221842        9.1593066599        0.0840884519
  H         4.2316263551        9.3402593820       -0.7659459564
  C        14.5216671383        1.0175864870       -6.1144828389
  N        14.1975741310       -0.2964686293       -6.2193062661
  O        12.9315867535       -1.9365290873       -5.3215418098
  S        15.5624191277        1.7474286905       -7.3619293584
  C        14.3484383733       -1.2068289801       -7.3182146718
  H        14.5305057041       -2.2298661408       -6.9489207871
  H        15.3318652845       -1.0253127749       -7.8477801295
  C        13.1862841322       -1.2189855123       -8.3044871406
  H        13.4253339240       -0.6379652424       -9.1740278174
  H        12.2314286210       -0.8350194686       -7.9437822706
  H        13.0275490133       -2.2699253104       -8.6485943935
  H        -3.8089898549       14.2737711706       16.1370027834
  C        -3.3780281022       13.2461502493       16.3618125122
  H        -4.1501011655       12.5647202027       16.6874777224
  C        -2.2677694796       13.2964270581       17.3789986086
  C        -2.9005678749       12.7633671707       15.0499854225
  C        -2.5013729742       14.0123456052       18.6400486551
  H        -1.8529650294       12.2765646919       17.5708949840
  H        -1.5190169611       13.7265422458       16.7855690635
  H        -2.5068241691       11.7333385007       15.0548280190
  H        -3.7407195259       12.9078440653       14.3746343242
  H        -2.1055080312       13.3323365041       14.5637460230
  C        -1.4156114486       13.7728597324       19.6822814350
  H        -3.5074946725       13.7069068801       18.9616410641
  H        -2.4462997631       15.0615307470       18.4299275268
  C        -2.0874189653       13.5997176818       21.0620314355
  H        -0.9056953728       12.8847675184       19.2844481414
  H        -0.6758665599       14.5721818166       19.6577429126
  C        -1.1483799334       12.8469736471       22.1102970791
  H        -2.9607809378       12.9432204428       20.8666654159
  H        -2.5181228042       14.5354139844       21.4057457710
  C         0.0512660804       13.7095813088       22.5317849709
  H        -1.7738732693       12.4672989413       22.9698168625
  H        -0.8448692827       11.9275322903       21.6977148081
  C         1.2322112338       13.0172563636       23.2822094207
  H         0.4470299363       14.1738748865       21.6456582511
  H        -0.2329707735       14.5080784861       23.2925844585
  C         1.6359008773       11.7084534965       22.6935327474
  C         0.7549416166       12.3457881308       24.5568627107
  C         2.4530472539       13.9726670286       23.6189698396
  C         1.2430448525       10.6500856739       23.5238804049
  C         2.1270532005       11.1584016028       21.4605743452
  C         0.7262349062       11.0202895531       24.6834388483
  C         0.2850939885       12.9996442062       25.7269374291
  H         2.6809317518       14.4393790924       22.6473801715
  H         2.1062540849       14.7436151072       24.3498155549
  C         3.6706252759       13.2952440577       24.1701228559
  S         1.4784844886        9.0684506032       22.8556535274
  C         2.1818388522        9.8145971960       21.4387502147
  H         2.2506553411       11.8270264907       20.6862557753
  C         0.3170285022       10.3395121657       25.8544925023
  H         0.4858064411       14.0781231306       25.7064752470
  C        -0.1376170481       12.3511529087       26.8573913248
  H         3.9613420151       12.4775192971       23.4730452834
  H         3.5392913907       12.8061777048       25.1353688639
  C         4.8113872771       14.2849408067       24.4004725266
  C         2.4115153774        8.9699880071       20.2760975853
  C        -0.1913135891       10.9981284632       26.9245882015
  H         0.3660468526        9.2068132264       25.7717642555
  C        -0.5625134097       12.7904927760       28.0942624214
  H         5.5147373032       13.9028742296       25.1624574028
  H         4.5261476408       15.1897524384       24.9544872417
  C         5.5349982991       14.6067736311       23.0447692480
  C         2.4816003288        7.5099511055       20.1471504874
  C         2.5241242424        9.7079647902       18.9635071114
  C        -0.7487790681       10.2593908133       28.1423305724
  C        -1.0044953570       11.6966421184       28.8562331997
  S        -0.7953540347       14.3020338291       28.8761430952
  H         6.2208200089       15.4084917224       23.2834089269
  H         4.7279562266       15.0092181427       22.4238848601
  C         6.3910661915       13.5573488579       22.3015448776
  N         2.4095067124        6.5511579011       21.2565751774
  C         2.8055813899        6.8680061180       18.9869104493
  C         2.7741359332        9.0322430432       17.7722713806
  H         2.4753069557       10.7957936178       18.9149630330
  C         0.1890135575        9.4253216052       28.8436123054
  C        -2.1272633588        9.6524624928       27.7975617302
  C        -1.5040733457       12.0728326348       30.0864259135
  C        -1.4612733876       13.4459979500       30.2788294447
  H         7.3253435265       13.9623437991       21.9948916559
  H         6.7392079215       12.8820995144       23.0096566253
  C         5.6348376313       12.8872154869       21.0597378636
  S         2.5491920811        4.9998691410       20.6624405167
  N         2.8141036902        5.4479222587       19.1208549807
  C         2.8580304114        7.5365386108       17.7366970379
  H         2.8498052791        9.6041718054       16.8776734185
  H         0.7500429299        8.7835955246       28.2121694440
  H        -0.2940924306        8.8456206065       29.5443798660
  C         1.4227701965       10.2036726036       29.2799786253
  H        -1.9534496631        8.6955690524       27.2253581993
  H        -2.5071520168        9.1892121010       28.7172345378
  C        -3.2735261190       10.5133759682       27.2772855043
  H        -1.7826301737       11.3009793045       30.7569551316
  C        -1.8800013818       14.1651928297       31.5381553822
  H         4.8104414712       13.4854742829       20.7026001452
  H         5.0398880230       12.0040726790       21.4488046527
  C         6.5561052761       12.4360858974       19.9472912133
  C         3.2880000244        6.8728219528       16.5379457281
  H         1.9363248640       10.6648800865       28.3788165973
  H         1.2973646636       10.9816977494       30.0520099417
  C         2.5707207202        9.3236245064       29.7618241773
  H        -2.9514528122       11.0186681344       26.3523901688
  H        -3.4534306569       11.3010784468       28.0328635406
  C        -4.5736888952        9.6567969021       27.1034675314
  C        -1.7688112645       15.5316523530       31.7570272939
  C        -1.9749766258       13.3680488235       32.7713836263
  H         7.4049225751       11.8029574151       20.3080609185
  H         6.0898357271       11.7015056737       19.4533180581
  C         7.0619116050       13.5900603117       19.0375456741
  H         3.1497154087        5.8775268394       16.4994468464
  C         3.6120959446        7.3451288178       15.2818124726
  H         2.5671539449        8.3596484666       29.2610418515
  H         2.3713363141        8.9495918232       30.7403640326
  C         3.9136237113       10.0528154170       29.8214466569
  H        -4.4971664324        8.8477969295       26.4167815116
  H        -4.8444429407        9.2163864143       28.0698436492
  C        -5.7624613390       10.5613156560       26.5628066705
  N        -1.6161221549       16.4447622465       30.7436455111
  C        -2.0337099994       16.1739092938       32.9620755122
  C        -2.0737188561       14.0482775788       34.0509447780
  H        -2.0379938386       12.2847451107       32.6854681943
  H         7.3609011422       14.4245232508       19.7269879702
  H         7.9896809438       13.2974477021       18.5325354217
  H         6.2597631265       14.0194287697       18.3893973596
  S         3.8772052174        8.9872598192       14.7449207638
  C         3.6992055222        6.3657030603       14.1776977260
  H         4.1005162871       10.7207590500       28.9748567578
  H         4.0171798707       10.5412376165       30.7973087932
  C         5.1108060807        9.1237018923       29.7766245364
  H        -5.4608265037       11.2636302999       25.8151938593
  H        -6.3259982142       11.0737206231       27.3547164660
  C        -6.9966051418        9.6733450899       25.9967641449
  S        -1.6740627911       17.9756896005       31.2853994581
  N        -1.9454557900       17.5619088111       32.8015237652
  C        -2.2315017194       15.5264515907       34.1848394690
  H        -2.2104140865       13.4266530398       34.9641655334
  C         4.1616108839        8.2813225648       13.1258626098
  N         4.1288901245        6.9246068007       13.0436205384
  O         3.5342129037        5.1465611748       14.3121787425
  H         6.0336672761        9.7370800876       29.5003060023
  H         4.8829452460        8.3607724232       29.0001161887
  C         5.4449015150        8.3349768984       31.0715085138
  H        -6.6845642937        8.9705688505       25.2035788868
  H        -7.3699966489        9.0245412316       26.8237363953
  C        -8.1002818036       10.4895071844       25.1903162869
  C        -2.6161502867       16.2055874921       35.3897502801
  S         4.6013809643        9.2682406162       11.6782144297
  C         4.2606634615        6.1187124423       11.7772652155
  H         6.0219267894        8.8177471042       31.8280280874
  H         4.4808864417        8.0673682835       31.5731280607
  C         6.1667057137        7.0162884587       30.7075329126
  H        -7.5829273466       10.8901288028       24.3098298134
  H        -8.3236719363       11.3892898098       25.7381117732
  C        -9.4178057538        9.8522995939       24.9089698685
  H        -2.6300573680       17.3149048784       35.2604343630
  C        -3.1617595441       15.8028995983       36.5942149965
  H         4.9118459595        6.4934710715       10.9800876025
  H         4.6220026009        5.1134090139       12.0309374094
  C         2.8945109559        5.9293264357       11.1299329213
  H         7.0458322831        7.1120016521       30.0860605745
  H         5.5854791973        6.5787183855       29.9372780495
  C         6.3464735175        6.1474036033       31.9624868942
  H        -9.9367126855       10.3423000236       24.0259669319
  H        -9.3307434267        8.8207898544       24.6869574603
  C       -10.3062397051       10.1164845271       26.0819589777
  S        -3.5393810090       14.1858574711       37.0431678586
  C        -3.3607319884       16.8522511910       37.6439132719
  H         2.5313633566        6.9286924634       10.8992301104
  H         3.0945102621        5.3150659377       10.2497815495
  H         2.1376310227        5.4909066146       11.7816492467
  H         5.6507712556        5.2798799063       32.0745127942
  H         6.2489695489        6.7388579989       32.8729384583
  H         7.3132366839        5.7169067439       31.9053708481
  H       -11.1872802819        9.5049886935       25.9701650341
  H       -10.6384217451       11.0696155207       26.2899674949
  H        -9.9378726132        9.9609564105       27.0576834839
  C        -4.0033031370       14.9531847577       38.6438815630
  N        -3.8962909843       16.2969376536       38.7568265836
  O        -3.0171682427       18.0101930739       37.4596227623
  S        -4.5364338345       14.0514358980       39.9967490629
  C        -4.0956213571       17.1226336768       39.9675147691
  H        -4.1419472079       18.1356729678       39.6216883872
  H        -5.0373172037       16.8599249568       40.4826909976
  C        -2.9252581588       16.7829712678       40.8218719067
  H        -3.3107315236       16.4542111035       41.8181014783
  H        -2.2773775526       15.9852181780       40.3823210004
  H        -2.1888388345       17.6218367130       40.8965225558
