352
i=
  H         2.5054053517        1.0343701323       12.7308838415
  C         3.3112654507        1.7763210421       12.7532872773
  H         4.2158799811        1.1523441080       12.7928700303
  C         3.4040797810        2.7641431408       11.5426246214
  C         3.1639875718        2.4318112826       14.1228672649
  C         4.7194179357        2.6947671845       10.6764328850
  H         3.3820422073        3.7348525327       11.9556155156
  H         2.5481291983        2.6852787904       10.9404683978
  H         2.8845224565        1.7025219638       14.8614798156
  H         2.2138390076        3.0164028709       14.1639300386
  H         4.0030530507        3.0873619532       14.4655021971
  C         4.9495518126        1.3102691681        9.9960013612
  H         4.5924897901        3.3980803341        9.8488107611
  H         5.6464073840        2.9278445468       11.2200482089
  C         5.6864596549        1.4533427092        8.6519454467
  H         4.0230155432        0.7653666820        9.8226726129
  H         5.5652809593        0.6389152796       10.6481139869
  C         6.8860926500        2.4350409777        8.7479231979
  H         5.0752245506        1.8774410226        7.8294192347
  H         5.9842135222        0.4745805936        8.2608955070
  C         8.0830636402        1.8140902522        9.4648399383
  H         7.2179914825        2.5857750785        7.7327145427
  H         6.6935283344        3.4536390007        9.2212844384
  C         9.2566497631        2.7889409599        9.5484759772
  H         8.3425968883        0.9824958554        8.8462048951
  H         7.8029205540        1.4658227107       10.5209561426
  C         8.8776175787        4.1146510331       10.1780408355
  C         9.5493322217        3.4340647029        8.2350598183
  C        10.5316756979        2.0989811750       10.1582787008
  C         9.0854148490        5.1662099971        9.3492623215
  C         8.4487598450        4.4675043892       11.4521464206
  C         9.5441198836        4.7414533962        8.1386400228
  C        10.0353852885        2.8060980269        7.0986160872
  H        10.1965526762        1.6437770493       11.0626965124
  H        10.8759542983        1.3566905806        9.5181949043
  C        11.6826711812        3.1319261570       10.3977550368
  S         8.6754213357        6.6577229868       10.0388179647
  C         8.2361057696        5.8348970432       11.5347552452
  H         8.2465142156        3.6892973190       12.1407418074
  C         9.8824260329        5.4045104925        6.9624223425
  H        10.0179632256        1.6916394226        7.1290690496
  C        10.4274747718        3.4243001179        5.9049082996
  H        11.2097252880        3.9516218549       11.0865418606
  H        11.9358862388        3.5453428885        9.4500908132
  C        12.9109611177        2.6357702389       11.1840497114
  C         7.7025078788        6.4919641485       12.7902563193
  C        10.3636472113        4.7786489277        5.7862427358
  H         9.8033879856        6.4738109708        6.9144452443
  C        10.9665391349        3.0028988338        4.7205480517
  H        13.6077397334        3.4774588635       11.3434602382
  H        13.3631182277        1.9414869596       10.5382553125
  C        12.4978464867        2.0348592372       12.4780714771
  C         7.6497503889        7.8615735799       12.9079040782
  C         7.3917295719        5.6241395142       13.9681174343
  C        10.8297130485        5.4900307510        4.5385828619
  C        11.1298046890        4.1105250361        3.9182225467
  S        11.2202806023        1.4441159361        4.0538317049
  H        11.9519985105        1.0847984122       12.3067017883
  H        13.3990277270        1.7681831686       12.9011867079
  C        11.6990156324        2.9856608505       13.4435163228
  N         7.8605389395        8.8072554624       11.9125515197
  C         7.4366374931        8.4617698061       14.1901452256
  C         7.1020943156        6.2423071299       15.1935970048
  H         7.1902839980        4.5748931150       13.9292757801
  C        12.1332849405        6.2791695550        4.6873249297
  C         9.7157835704        6.2137235363        3.7471998973
  C        11.5314365385        3.6160625221        2.7196439763
  C        11.6016844176        2.2607877819        2.5898934810
  H        10.6880278797        3.3068897246       13.0771839783
  H        12.2819821376        3.8728597929       13.5752441874
  C        11.4999461374        2.4369773735       14.8371314199
  S         7.6163528585       10.3060950190       12.5277266668
  N         7.2362850038        9.8390576827       14.0414828754
  C         7.1900280285        7.7107819810       15.3658594982
  H         7.0064897092        5.5677657941       16.0154003728
  H        11.8731689062        7.2438503442        5.1407551544
  H        12.4142167058        6.4558025242        3.6829023950
  C        13.2919504793        5.6282218587        5.4822637018
  H         9.4555782980        7.1394371789        4.2386883918
  H        10.2019029723        6.5818735049        2.8357036942
  C         8.4294641819        5.4553956204        3.4123334672
  H        11.5517904719        4.2951194708        1.9104843642
  C        11.7775489561        1.4876579789        1.3042893198
  H        10.4647075792        2.7683236836       15.2316270756
  H        11.6430394135        1.3352162167       14.7159140059
  C        12.5526729912        2.8312496411       15.9141020951
  C         6.9222484980        8.4814930577       16.5707826364
  H        12.8333320375        5.2025989305        6.4058360566
  H        13.6883915246        4.7859029070        5.0593717214
  C        14.4330891738        6.5967886104        5.8679685314
  H         8.1220265201        4.8320703120        4.2564547781
  H         8.6408827928        4.7631792998        2.6224355540
  C         7.3386477564        6.4553304005        3.0112433717
  C        11.8570309673        0.0520503159        1.1261037107
  C        11.8669753572        2.2984658461        0.1059096763
  H        12.3154496062        3.8059258929       16.3490659773
  H        13.5875077773        2.8258895570       15.5819411605
  C        12.4364775927        1.8877468071       17.2053306822
  H         7.2104278544        9.5142429811       16.4972131870
  C         6.5858707870        8.1194979518       17.8449353931
  H        14.0516111179        7.2217211434        6.6672309483
  H        14.6936753495        7.2836592418        5.0622896768
  C        15.6393380768        5.9921892074        6.6091915104
  H         6.9976515533        7.0090113293        3.8382493751
  H         7.8470044500        7.2611321634        2.4557092800
  C         6.2820360544        5.7110682515        2.2462643025
  N        11.7635151763       -0.8467188379        2.1433894505
  C        12.1342618037       -0.5239153972       -0.0662675249
  C        12.0249606615        1.6349566979       -1.1038735703
  H        11.7048688187        3.3366924522        0.1160686849
  H        12.9559292473        2.2722783832       18.0902660552
  H        12.9416081442        0.8672452624       17.0503263992
  H        11.3768508179        1.7950138177       17.5704528074
  S         6.3562074842        6.6177680657       18.5794168051
  C         6.3533815457        9.3593368399       18.7038932935
  H        16.1799737566        6.7489962979        7.0852072965
  H        15.2997363364        5.3263391538        7.3526680426
  C        16.7132234297        5.2623544981        5.8385160730
  H         6.1491583681        4.6376723966        2.4605964182
  H         6.5755971871        5.7015200416        1.2073144142
  C         4.8797467550        6.3451691165        2.4009956169
  S        12.0034801248       -2.3390765386        1.5571485370
  N        12.3508737648       -1.8943306073        0.0459180031
  C        12.2950916375        0.1815698118       -1.2379883808
  H        11.9686533811        2.2605655096       -1.9440785593
  C         6.1146436578        7.6267274949       20.0534637653
  N         6.2021740328        8.9328474703       19.9402984531
  O         6.5574020915       10.5672909828       18.4247571162
  H        16.1171759565        4.5555530988        5.3023304872
  H        17.1718521083        5.9570658321        5.1200115995
  C        17.7351198358        4.4654545822        6.7505200761
  H         4.2041377819        5.9548467019        1.6102229084
  H         4.4267572627        5.9575842165        3.3670338994
  C         4.7308649913        7.9240107291        2.4968356993
  C        12.7492004359       -0.5154740749       -2.3855625952
  S         5.5840096323        6.9123043291       21.6750590676
  C         6.2983300946        9.8217384229       21.1427671366
  H        17.2208325244        3.9174784986        7.4993683356
  H        18.3017445383        3.7916609673        6.1599448411
  C        18.8585706068        5.3939074565        7.3604835326
  H         5.3578697429        8.3934854201        3.2478549446
  H         3.7584502811        8.2376736898        2.8792921747
  C         4.9461449361        8.6826163443        1.1359681552
  H        13.0591990333       -1.5287369707       -2.2078113321
  C        13.2918016697       -0.1447384216       -3.5674872587
  H         5.5209198648        9.4651450576       21.8893524894
  H         5.8917077039       10.8047022243       20.8533800047
  C         7.7174916385        9.8059841660       21.6078432564
  H        19.3335889354        4.7959506194        8.1237571928
  H        18.3397004317        6.1393884355        7.9236632778
  C        19.7864292453        5.9358155088        6.3402933649
  H         5.8243135260        9.2041364326        1.2883395058
  H         5.0049093403        7.9662407434        0.3351196248
  C         3.8941565837        9.7721555979        0.8402799433
  S        13.5054999916        1.4664555168       -4.1124305763
  C        13.4501057525       -1.2079831246       -4.5993437707
  H         7.9225436580        8.7475891288       21.8099114532
  H         7.6888918419       10.3865375476       22.6076666406
  H         8.3545143226       10.2987788172       20.8818440682
  H        20.7387922952        6.0250409257        6.8192546239
  H        19.8006846586        5.4115840158        5.4101206935
  H        19.3822404141        6.9409673448        6.1202740626
  H         3.6089481697       10.4657574445        1.5901268150
  H         4.2880055909       10.3661528905       -0.0260313626
  H         3.0104740164        9.2884588800        0.4457929834
  C        13.9076576942        0.7437279744       -5.6392874851
  N        13.9510557281       -0.6054626633       -5.6975891321
  O        13.2552581917       -2.4005993728       -4.3911943487
  S        14.6286017405        1.6975198922       -6.9727906180
  C        14.1393965830       -1.3552811890       -6.9188163290
  H        14.3264353299       -2.3647453939       -6.5795242052
  H        14.9334551138       -0.9736337468       -7.5520197632
  C        12.8658185143       -1.2387683355       -7.7516907959
  H        13.0056453116       -0.5266214215       -8.5768122815
  H        12.1109086945       -0.8414318396       -7.0653600784
  H        12.4634488741       -2.1946511603       -8.0759519997
  H        -3.4446757042       14.2396289311       16.5358708712
  C        -2.6449743876       13.4702275212       16.6015874173
  H        -3.0987201978       12.5795207475       16.7632421178
  C        -1.5747155587       13.7562730204       17.6482233324
  C        -2.1553875157       13.3766781897       15.1349789387
  C        -2.1368916245       13.8910193706       19.0585301362
  H        -0.7006912963       13.0324513853       17.4636168396
  H        -1.1348691233       14.7333788498       17.5352405740
  H        -1.0989755529       13.3704626087       15.1309320618
  H        -2.5521207024       12.4483095162       14.6227292504
  H        -2.5034022047       14.1718722494       14.4976043892
  C        -2.2166970689       12.5941273667       19.7809572266
  H        -3.1911536942       14.2221539365       19.0142520918
  H        -1.5629370811       14.5536196935       19.6902623732
  C        -2.6795513774       12.7338365630       21.2339006024
  H        -2.9565576039       12.0348986312       19.1339749966
  H        -1.2143261885       12.0985889509       19.7637856908
  C        -1.5868772160       12.2667314178       22.3133337385
  H        -3.5909438854       12.0512022068       21.3321507458
  H        -2.8894504785       13.8046671411       21.4731706208
  C        -0.3698730737       13.2942511482       22.3279001720
  H        -2.0847373252       12.2228399358       23.2598572823
  H        -1.2378040799       11.2301448896       22.1956077487
  C         0.8512886122       12.7160282526       23.1515105238
  H        -0.1527602667       13.6136647099       21.3014104833
  H        -0.7053444547       14.1141329481       22.9224209502
  C         1.2236209227       11.4336158480       22.4879580569
  C         0.5080325766       11.9773049734       24.4310015345
  C         2.0213742215       13.7044428513       23.2899309841
  C         1.1925509067       10.2819664975       23.2704502434
  C         1.7029939756       11.1715081543       21.1588813615
  C         0.6477885257       10.6492551999       24.5299177982
  C        -0.0939101987       12.5494956699       25.5157753641
  H         2.2173612416       14.1896071403       22.3398493509
  H         1.6889604111       14.4743360937       23.8474655667
  C         3.3271741526       13.0621986971       23.7974472164
  S         1.8192512788        8.8874879072       22.4838684174
  C         2.0487402421        9.8329038241       21.0388703632
  H         1.6342903984       11.9618394572       20.2685072767
  C         0.2050725876       10.0135068241       25.6939244373
  H        -0.2158839727       13.6365026518       25.4943572459
  C        -0.3992020516       12.0015074362       26.6905734857
  H         3.7291835236       12.5092207179       22.9322429318
  H         3.0503815981       12.3043496373       24.5656532280
  C         4.4354114136       14.0724687829       24.1476007938
  C         2.4275616771        9.1574928413       19.7830180377
  C        -0.3082395356       10.6344144484       26.8332707000
  H         0.2506981073        8.9726904912       25.6684537459
  C        -0.7964780244       12.4908004900       27.8989457413
  H         5.2758304971       13.6933212893       24.7252613659
  H         4.0700204595       14.8874863806       24.7559836297
  C         5.1097485286       14.6132688794       22.9293174676
  C         2.5829110994        7.7480668312       19.6006848904
  C         2.7816693667       10.0173522140       18.5947571302
  C        -0.6948186730       10.0342471440       28.1502295309
  C        -0.9753542981       11.4398491090       28.7887832726
  S        -1.0942073354       14.0105024325       28.5316032184
  H         5.7532496137       15.4020852352       23.2289415999
  H         4.4313677477       15.0057930346       22.1161031380
  C         6.0598672266       13.5090328901       22.3427494045
  N         2.3825212289        6.7763277299       20.6276326644
  C         2.9520110790        7.2371687343       18.3659203811
  C         3.1998880181        9.4449615884       17.3601565303
  H         2.9036721178       11.1095055619       18.6361723839
  C         0.3924432068        9.3445306996       28.9469030721
  C        -1.9644051216        9.0954609130       27.9591989145
  C        -1.2949144789       11.9668291949       30.0709957149
  C        -1.3871836189       13.3789240913       30.0434964627
  H         7.0843836035       13.5045556841       22.7776161912
  H         5.7431493785       12.4656612946       22.4455057961
  C         6.0992303802       13.8484586502       20.8957808948
  S         2.5676619486        5.3184001602       19.8900266084
  N         3.0708403301        5.8615665825       18.4255460970
  C         3.3086121007        7.9949982658       17.2567227716
  H         3.5077383050       10.0303742075       16.5997180954
  H         0.6218745706        8.4773578787       28.4128805732
  H         0.0904318947        8.9163612469       29.8954629483
  C         1.7409392836       10.1036521849       29.1282151217
  H        -1.5819326803        8.3564788990       27.2152842126
  H        -2.2154508584        8.6075133061       28.9013665494
  C        -3.0692986892        9.8998158860       27.3591117057
  H        -1.3159448331       11.3358034141       30.9448595545
  C        -1.5959900269       14.2556848862       31.2108186874
  H         6.2847510884       14.9004703506       20.7022421698
  H         5.1629145293       13.6397423618       20.3564699469
  C         7.3157874121       13.2419455575       20.2171237128
  C         3.6105422477        7.2701285885       16.0902200191
  H         2.0215991317       10.5953417744       28.1765661533
  H         1.6024729216       10.9477634691       29.8457488639
  C         2.8491562117        9.1738786739       29.5022129044
  H        -2.7749974856       10.2429195868       26.3818330667
  H        -3.2394110890       10.7467233614       27.9838412361
  C        -4.3235886818        9.0570291317       27.1296078895
  C        -1.5780516132       15.6780127489       31.2513084287
  C        -1.9763758867       13.6528735845       32.5412570652
  H         8.2802930804       13.4750883113       20.7106484480
  H         7.2985442880       12.1501016755       20.2423717027
  C         7.3155235338       13.7549252861       18.7863134079
  H         3.6832174856        6.2333743519       16.0907160270
  C         3.9194518232        7.5497719762       14.7824416728
  H         2.9146586970        8.3866036256       28.7644130969
  H         2.5314133205        8.6709490968       30.4722700935
  C         4.1640352347        9.9257356019       29.6591953440
  H        -4.2338217667        8.5940156109       26.1550388577
  H        -4.5964053132        8.3004748062       27.8289777560
  C        -5.5585013397        9.9895008166       27.1192201550
  N        -1.4375018979       16.4537172737       30.1367451678
  C        -1.7909786413       16.4311926314       32.3803331680
  C        -2.3077880140       14.4214969942       33.6840160759
  H        -2.1257602010       12.5634694820       32.6491512350
  H         6.4027727726       14.2196835496       18.4529030584
  H         8.0346175757       14.6000647419       18.7377228879
  H         7.6885572915       13.1221418410       17.9650235095
  S         3.9390497341        9.1424184006       14.1078352230
  C         4.0751171932        6.5258498175       13.7136936566
  H         4.5040556696       10.4587698457       28.8094019340
  H         4.3006766036       10.6197227197       30.4960587532
  C         5.1560938629        8.8362991094       30.0035478749
  H        -5.3642608115       11.0339174740       27.3446399081
  H        -6.2197802233        9.5851282295       27.9658269244
  C        -6.2811959379        9.9856932345       25.7801422034
  S        -1.4549725271       18.0061172183       30.6398546044
  N        -1.8520023242       17.7624897260       32.1521480762
  C        -2.1468109732       15.8755324618       33.6739961822
  H        -2.6052157043       13.8116447350       34.5406265933
  C         4.2050814202        8.4754903075       12.5231742214
  N         4.3322340130        7.1584424257       12.5553965205
  O         4.1731203515        5.3330023181       13.9485026263
  H         6.0549915087        9.2629627307       29.6137849427
  H         4.8813774377        7.8828622571       29.5217450199
  C         5.3312992976        8.6199634362       31.4709893590
  H        -5.8414226269       10.7193214348       25.0468758799
  H        -6.2909008257        9.0371586534       25.3193596590
  C        -7.7157477155       10.4991607184       25.9952046536
  C        -2.3927689157       16.7128092055       34.8029620559
  S         4.5835954839        9.3954925912       11.0959857823
  C         4.6512380327        6.3027134395       11.3716281483
  H         5.7876855718        9.5540380225       31.8200304126
  H         4.3266960375        8.4550572969       31.8865026789
  C         6.2327360620        7.4299192614       31.7019108144
  H        -7.8046422491       11.5774581534       25.7221607516
  H        -8.0126609326       10.3490460956       27.0513120699
  C        -8.8127544144        9.6711588700       25.3210833275
  H        -2.3916405417       17.7610330335       34.5598147262
  C        -2.8102963279       16.4802101270       36.1130940198
  H         5.4399232584        6.7429199117       10.7738038297
  H         5.0072929167        5.2600037081       11.7255164615
  C         3.3929609235        6.1855348139       10.4740109748
  H         5.6470323509        6.5750923125       31.9868966472
  H         6.8701353752        7.5001373520       32.5580494132
  C         7.1939658342        7.1111757808       30.5740615870
  H        -8.6950228411        9.7462484424       24.2364368488
  H        -8.4869627565        8.6456511944       25.5201142814
  C       -10.2305497330        9.8490086195       26.0092765538
  S        -3.3078728624       15.0707527471       36.8427946922
  C        -2.7506404546       17.6798015834       37.0115735357
  H         3.3520184722        5.3038252584        9.8408415327
  H         2.5503628461        6.0965389520       11.1651074095
  H         3.2590357969        7.0814637808        9.8387949941
  H         7.9679113345        7.9495743228       30.3850104147
  H         6.7175831206        6.8663027902       29.6545686753
  H         7.5327897850        6.1666666500       30.8399755421
  H       -10.6643676494       10.8362022206       26.1111553709
  H       -10.2305451357        9.3970822654       26.9931784360
  H       -11.0113426299        9.3241637663       25.3827251098
  C        -3.5612073598       16.0066522085       38.3103278685
  N        -3.3009597374       17.3247271275       38.2346763381
  O        -2.3800411903       18.8021920597       36.7759742230
  S        -3.9992142326       15.3036322340       39.8038083820
  C        -3.5100171673       18.1741241352       39.4315182814
  H        -3.7217528973       19.1275699080       39.0406626457
  H        -4.4478546223       17.8902547456       39.9865662162
  C        -2.2181768171       18.3873620495       40.2481650673
  H        -2.2683382370       19.3465507748       40.7332494658
  H        -2.0132229918       17.5384801200       40.8992745093
  H        -1.3828722001       18.5634212857       39.5412865786
