352
i=
  H         4.6994804010        1.5768961860       12.7223083530
  C         3.9786386193        2.3538638741       12.8041947791
  H         4.6818406946        3.2033689137       12.7956728975
  C         3.1755680045        2.4257433743       11.4986622477
  C         3.1755546326        2.3012335803       14.0589330311
  C         3.9483564111        2.5559597281       10.1629270353
  H         2.4598283520        3.2736146682       11.6273926164
  H         2.4795286652        1.5296462013       11.4454927682
  H         2.7181844119        1.3091862326       14.1481271731
  H         2.4869661602        3.1762427156       14.0781613594
  H         3.8681653066        2.2737546585       14.9097785635
  C         4.6488564814        1.2157438058        9.6385336197
  H         3.1662652981        2.8034605021        9.4183974099
  H         4.7375421640        3.2961763466       10.1929572470
  C         5.3896771926        1.4575553875        8.3083724182
  H         3.8334262793        0.5245681230        9.4735300118
  H         5.2269254162        0.7540795642       10.3621099986
  C         6.6623400564        2.3710689427        8.4437887590
  H         4.6578960928        1.7906822323        7.5951017536
  H         5.6298556871        0.5922976333        7.7058582454
  C         7.8515988238        1.6983881926        9.1499279975
  H         7.0884016170        2.6534227715        7.4598852052
  H         6.4082323592        3.3551038561        8.8789512836
  C         9.0166339667        2.5952748762        9.4739379852
  H         8.2901157405        0.9034711213        8.5638200779
  H         7.5166044026        1.1747789002       10.0676012930
  C         8.6370257633        3.8882393354       10.1303301500
  C         9.4865905891        3.3398828188        8.2233659398
  C        10.1830774017        1.8386113537       10.2648167175
  C         8.8486904627        5.0345021800        9.3371294293
  C         8.0747758851        4.2719338223       11.4335829096
  C         9.4650789540        4.6900467217        8.1762788603
  C        10.0666469538        2.6859995383        7.1166675061
  H         9.7067971464        1.4342727916       11.1476103145
  H        10.5957548885        0.9909886655        9.6431508848
  C        11.2737734653        2.8826706127       10.6529853591
  S         8.5301401888        6.4718251014       10.1099094000
  C         7.9433750941        5.6230114199       11.4730488648
  H         7.9032700218        3.5870831589       12.2228520636
  C         9.8069144986        5.2732667226        7.0175131219
  H        10.2863602691        1.6399493665        7.1646795555
  C        10.4345684378        3.3188675322        5.9511026342
  H        10.9099688016        3.6671494802       11.3438497069
  H        11.6579956083        3.3460268423        9.7889334028
  C        12.4425228102        2.2625741463       11.4652333732
  C         7.5125212331        6.4015455059       12.6635328837
  C        10.3625817227        4.6627140805        5.8434731518
  H         9.7752850708        6.3581803691        6.9212858147
  C        10.8783811341        2.8985989335        4.7181460725
  H        13.3203880254        2.9060838313       11.6708079798
  H        12.9606359787        1.4651906289       10.9397687372
  C        11.9218029872        1.7693119351       12.7714649583
  C         7.5544894694        7.8356660729       12.8662064954
  C         7.2080238565        5.6274191333       13.8793561375
  C        10.8185343699        5.3448489740        4.5953746017
  C        11.1385013309        3.9554847509        3.8840457681
  S        11.2062332258        1.3572596141        3.9475932348
  H        11.2525196761        2.5188147681       13.1520892474
  H        11.4618598682        0.8403235102       12.7417156411
  C        13.0495836999        1.5268068672       13.8049488403
  N         7.8729790836        8.7784944116       11.8579738741
  C         7.3860785345        8.3529056264       14.1013078512
  C         7.0120162379        6.2264558876       15.1119715705
  H         7.1447492537        4.5369759074       13.8936229475
  C        12.0977745539        6.2114127142        4.7735289552
  C         9.7303302133        6.1184552644        3.8495094879
  C        11.4202158270        3.5094595488        2.5674057855
  C        11.5353361774        2.1520990955        2.4204867705
  H        13.4553126459        2.4647909563       14.0218840964
  H        13.8204715736        0.8550334508       13.4531526546
  C        12.3844402707        0.9176299736       15.0884123261
  S         7.9721543969       10.2562336751       12.4833885560
  N         7.5226540284        9.7635148637       13.9807662405
  C         7.0376080536        7.6640316953       15.2909502445
  H         6.9124147129        5.4730243992       15.9163436268
  H        11.9881158621        6.7472948712        5.7067072166
  H        12.1558211109        6.9895990699        4.0724833840
  C        13.4209361337        5.4199327215        5.0039023098
  H         9.5105732897        6.9127402591        4.5119016794
  H        10.2086268144        6.5472204679        2.9734189885
  C         8.4685146085        5.2996243289        3.3814069021
  H        11.5386939961        4.3052223440        1.8648462937
  C        11.7430579668        1.3855626431        1.1610322648
  H        11.4384701288        0.4378537975       14.7799972850
  H        13.1064426711        0.1073223687       15.3853876570
  C        12.2306651304        1.9471591261       16.2119844963
  C         6.9429510463        8.4051169505       16.5465766861
  H        13.1932435660        4.6067502720        5.7883052460
  H        13.6080267636        4.8503425003        4.1515920945
  C        14.6634691132        6.1885103371        5.5266681390
  H         7.8692253822        4.7390555713        4.1289038732
  H         8.7792843159        4.6281629378        2.5792679515
  C         7.5157773636        6.2248773233        2.7417082002
  C        11.6812372488        0.0123451047        1.0179784151
  C        11.9284383067        2.1918339361       -0.0165505552
  H        11.4883078265        1.4716513665       16.7782103442
  H        11.8597523999        2.9047398089       15.9398467341
  C        13.4572813284        2.1885267558       17.1155264757
  H         7.2787032350        9.4723178580       16.4374938501
  C         6.6281314077        7.9645703575       17.8402530222
  H        14.4211905829        6.8096932343        6.3396402867
  H        14.9451313058        6.9849830347        4.8295277436
  C        15.8776402331        5.3430412892        5.8500231635
  H         7.0107811138        6.8629579410        3.3999108982
  H         8.0448020344        6.8172182607        2.0191822453
  C         6.3449074592        5.5450845512        1.9956450991
  N        11.7023983610       -0.8565524528        2.0719024616
  C        11.9207220360       -0.6314368611       -0.1622215635
  C        12.3371323570        1.5582074228       -1.1854388419
  H        11.9110161935        3.2822842655        0.0426520660
  H        13.8919988053        1.3439608178       17.5944718057
  H        12.9879774144        2.8991556487       17.8837650519
  H        14.2720821355        2.7175198834       16.5832044868
  S         6.1951344825        6.3709107262       18.2650842112
  C         6.6230618331        8.9140010692       18.9748594745
  H        15.8172691333        4.2422621900        5.5478227509
  H        16.6840191113        5.7629936775        5.2464176597
  C        16.3267539568        5.5318158748        7.3213195651
  H         5.6238263969        5.3407706654        2.7972430915
  H         6.7434789226        4.6584097771        1.5078587722
  C         5.6178805915        6.3403916274        0.9353906379
  S        11.4905895494       -2.3845445836        1.4873200950
  N        11.8107517257       -2.0132570328       -0.0207244590
  C        12.3423457643        0.0930238925       -1.3497965345
  H        12.5547856227        2.0887701986       -2.0831216525
  C         5.9864981642        6.9765419261       19.9436381056
  N         6.1602097377        8.3116196598       20.0797783683
  O         6.8577781330       10.1055003956       18.7104857515
  H        16.3059321248        6.6359222281        7.5669402915
  H        15.6236345802        4.8694743543        7.9634988690
  C        17.7604121649        4.8843605316        7.4882718136
  H         6.2138503612        6.3321205207        0.0327549816
  H         4.6115907279        5.7870007609        0.8729096132
  C         5.3310244275        7.7543688282        1.3300522339
  C        12.6194613144       -0.6117878012       -2.5257597085
  S         5.4895080273        6.0632416607       21.3564288120
  C         5.9657016734        9.0442484934       21.3016485517
  H        17.6920103859        4.4844398084        8.5495170682
  H        17.9064828146        4.0650999339        6.8195554729
  C        18.8953279725        5.9563115558        7.5241571274
  H         6.1041746580        8.4895579385        1.0689550227
  H         5.2711836992        7.8127611969        2.4214510228
  C         4.0061998235        8.1093717940        0.8065089786
  H        12.5764025597       -1.6887535744       -2.4472501735
  C        13.1730317669       -0.2750964447       -3.7405304058
  H         5.2404333442        8.6783379280       22.0266088684
  H         5.5481840013        9.9869127898       20.9074787599
  C         7.2544690615        9.1607418382       22.1584910193
  H        19.8174578907        5.3500395598        7.9208245315
  H        18.5463299606        6.7527768835        8.2175275869
  C        19.2482612326        6.4228923239        6.1597700469
  H         3.7903474388        7.5982620423       -0.1511191811
  H         3.2239021176        7.7929138773        1.4985457480
  C         3.7249459543        9.6491192923        0.6295496663
  S        13.5056252614        1.3739738568       -4.2927404171
  C        13.4118713493       -1.2987393669       -4.8131662792
  H         7.5539074248        8.2029986080       22.6290846032
  H         7.2018483615        9.9410290321       22.8681433380
  H         8.1316145540        9.4726776102       21.5389372253
  H        19.1510456066        5.5648597183        5.4393983912
  H        18.6643388073        7.2947767641        5.6933206147
  H        20.3182154792        6.6632364013        6.2621011917
  H         3.9719623757       10.0965287532        1.6294852232
  H         4.1639379655       10.1983228987       -0.1650516617
  H         2.7028522227        9.8722031379        0.5419941662
  C        13.9121148671        0.6225781307       -5.8171858942
  N        13.8552420857       -0.7403327018       -5.9131318313
  O        12.9504792481       -2.4246183001       -4.7585552453
  S        14.5591593276        1.5603585533       -7.2111772187
  C        14.0584447445       -1.4587284700       -7.1585204118
  H        14.4115827369       -2.4966891509       -6.8651697854
  H        14.8973259862       -1.0258554738       -7.6518795024
  C        12.7569629323       -1.5243679516       -8.0160390619
  H        12.8097779598       -0.6749108501       -8.7242943744
  H        11.8057389834       -1.6353619149       -7.5799978701
  H        12.7970929274       -2.4842175393       -8.5847957598
  H        -2.9380312931       15.2633940381       16.7356575476
  C        -2.9301850323       14.2276722882       16.6480194232
  H        -3.8126495367       13.7837992367       17.0374624072
  C        -1.8608479296       13.8020247656       17.6198011748
  C        -2.7900383364       13.5881862006       15.2412842564
  C        -2.2343092808       14.2339426569       18.9744093767
  H        -1.8568684264       12.7240828116       17.6213559861
  H        -0.8837116539       14.1379031333       17.3385269233
  H        -3.5577734908       12.8944533217       15.0435850260
  H        -2.9160622323       14.2744344155       14.4190039712
  H        -1.7639018806       13.1879896123       15.0655678087
  C        -1.9161491970       13.1325455393       20.1099328712
  H        -3.3014151794       14.4728055043       18.9993061009
  H        -1.6616408893       15.1035409380       19.2263323876
  C        -2.1943461092       13.5915434809       21.5408769278
  H        -2.4871475732       12.2902271819       19.9141974818
  H        -0.8775103715       12.8363860923       20.1358551858
  C        -1.1772170150       12.9978140224       22.5819100974
  H        -3.2341399026       13.2879568294       21.8256134533
  H        -2.2422820902       14.6780089622       21.5584600356
  C        -0.0440158485       13.9601503575       22.8230282354
  H        -1.7480113252       12.7579118125       23.4816914069
  H        -0.8904266624       11.9936595331       22.3435515094
  C         1.1714092023       13.2832832243       23.5458814197
  H         0.2440610166       14.2988747815       21.8257457609
  H        -0.3573380092       14.7939100724       23.3775053457
  C         1.5342111910       11.9080149339       22.8538776275
  C         0.8209662556       12.5342307574       24.8372070177
  C         2.4242090332       14.1996748440       23.8190657481
  C         1.3666307809       10.8443418986       23.6497598670
  C         2.1120118079       11.5771893946       21.6014895772
  C         0.8788991678       11.1848822187       24.8716850773
  C         0.2798969608       13.1018768839       25.9416413416
  H         2.5276609599       14.8732905697       22.9406579209
  H         2.2068011605       14.7529395501       24.6836653501
  C         3.7767792640       13.4956064097       24.1421412837
  S         1.6687902457        9.3951552868       23.0010433346
  C         2.0732160499       10.2065434876       21.4730517664
  H         2.2923480794       12.3751253262       20.8867936972
  C         0.4650963149       10.5971586996       26.0766447384
  H         0.2781769913       14.1983038120       25.9306600836
  C        -0.1949953569       12.4694265784       27.0775859366
  H         3.9377755366       12.6593388633       23.4512779233
  H         3.5367035718       13.1618834152       25.1884559077
  C         4.8713090904       14.5816106205       24.0746967265
  C         2.3168800326        9.5025763100       20.1815325728
  C        -0.1271646712       11.1442747372       27.1777031586
  H         0.5359834134        9.5389622185       26.1473987156
  C        -0.7116994533       12.9074562809       28.3046587302
  H         5.7364350139       14.3800845790       24.7024668566
  H         4.4272143029       15.5386757048       24.2625067368
  C         5.4075700436       14.7635299064       22.6448746572
  C         2.2411308183        8.0709567109       20.0212668320
  C         2.7364907000       10.2234683467       19.0277311159
  C        -0.5727479836       10.4204212416       28.3811026067
  C        -0.9308255742       11.8021461276       29.0736043246
  S        -1.0132020479       14.4132184692       29.0657904753
  H         6.0954931353       15.6032819436       22.5979885196
  H         4.5573768517       15.0055112063       21.9414128550
  C         6.2934602896       13.6258009641       22.1740068073
  N         1.9230981062        7.1672026226       20.9795472691
  C         2.5793186691        7.4463409236       18.8226783381
  C         3.1114719658        9.5103141204       17.8681080930
  H         2.8324990681       11.3076152745       19.0335241778
  C         0.5543835267        9.5803536443       29.1077926462
  C        -1.8557015869        9.6653556254       28.0072371423
  C        -1.1640462437       12.1975748517       30.4075060945
  C        -1.4269553100       13.5182480504       30.5136129713
  H         7.2451812325       14.0522401342       21.9406946978
  H         6.3041688715       12.9103166570       22.9902839348
  C         5.8288865544       12.9955410695       20.8638641836
  S         1.9298223868        5.6958618757       20.3831145653
  N         2.4040955728        6.0789695004       18.9114274282
  C         3.0676757592        8.0664609930       17.6503755248
  H         3.4487661113       10.1215811588       17.0544785570
  H         0.9414681407        8.7765017713       28.5883106165
  H         0.1742685836        9.2481009576       30.0986571864
  C         1.8411115633       10.2928568099       29.4972132937
  H        -1.4994711760        9.0524226560       27.2534089189
  H        -2.2093024873        8.9761173874       28.8107805023
  C        -2.9507235407       10.5433489995       27.3702811583
  H        -1.2221309827       11.4501535857       31.1312152629
  C        -1.8198501854       14.2200328779       31.7947266340
  H         4.7579655572       12.9349721002       20.9262072859
  H         6.3541256206       12.0436394223       20.6751403855
  C         6.0405248173       13.9687351559       19.7354428570
  C         3.3265153411        7.3271185579       16.4774566223
  H         2.1984028830       10.5234215804       28.5436511637
  H         1.6018163996       11.1324327806       30.1103835530
  C         2.8283953802        9.4731756346       30.2658958035
  H        -2.5972174052       10.9544486618       26.4294640740
  H        -3.1820175158       11.3627664524       28.1101668263
  C        -4.2198635162        9.7111677704       27.0963924245
  C        -1.7633999287       15.6318560253       31.9812367745
  C        -2.0438639593       13.4325843268       33.0676766932
  H         5.1768500630       14.5955438809       19.6937382413
  H         7.0117004999       14.4971371964       19.8881879457
  C         6.3092032856       13.3959381480       18.3511510061
  H         3.3121237514        6.2632747970       16.6039139776
  C         3.6338980653        7.7272450895       15.1826718653
  H         2.9186461392        8.5178665067       29.7964370939
  H         2.3615059015        9.1565617880       31.2133945073
  C         4.1283832659       10.2013891759       30.5880884607
  H        -3.9574108998        8.7415228432       26.7455154773
  H        -4.7243796906        9.5511700201       28.0484908993
  C        -5.1628147744       10.4778553859       26.1729042745
  N        -1.5478170273       16.5212558685       30.9555855467
  C        -2.1592166558       16.2328127008       33.1774404503
  C        -2.3892489482       13.9970598566       34.2649442135
  H        -1.8423770711       12.3600403901       33.0147383434
  H         6.7392347137       14.2033429319       17.7554250419
  H         6.9851629419       12.5181862330       18.4541265373
  H         5.3185824082       13.1808569019       17.9005372849
  S         3.9269398241        9.3745669727       14.5836418485
  C         3.7470741888        6.7048970859       14.1516405990
  H         4.3948203881       11.0718375083       29.8783546160
  H         4.0390601137       10.6461777160       31.5678448760
  C         5.4073299293        9.3082717434       30.3601319516
  H        -4.6781567212       11.0066805890       25.3137804909
  H        -5.6113871437       11.2752521022       26.7153031383
  C        -6.3610011217        9.6492107191       25.6650264463
  S        -1.4874870380       17.9839568223       31.5504453165
  N        -2.1706441646       17.6037308390       33.0334855685
  C        -2.5689169486       15.5145899006       34.3282851673
  H        -2.4503756733       13.4040555688       35.2011097108
  C         4.0830833113        8.6217994335       12.9720861287
  N         4.0705271742        7.2585558753       12.9584557418
  O         3.7091865906        5.5027709860       14.3871230300
  H         6.2928464588        9.9843326322       30.2039849955
  H         5.4677888206        8.7421887281       29.4146915810
  C         5.8018580001        8.5420785505       31.6590242866
  H        -6.0812883990        8.9402406495       24.9853439532
  H        -6.8500471107        9.1317383670       26.5035417986
  C        -7.3935738024       10.6481258964       25.1807476986
  C        -2.9392829972       16.2315414100       35.5373349036
  S         4.6206880141        9.4240894127       11.4890610481
  C         4.1081372664        6.5249773858       11.6902482686
  H         5.9792455313        9.2230263971       32.4855390551
  H         4.9748875565        7.9655006535       32.0388505608
  C         6.9398974620        7.6045046295       31.4117561032
  H        -6.9683998265       11.1979828484       24.2957796629
  H        -7.5097625773       11.4110934336       25.9619151075
  C        -8.7258450349        9.9796163366       24.7383027744
  H        -2.6024946242       17.2530540144       35.6626985211
  C        -3.4449431610       15.7585190916       36.7163527743
  H         4.7958337611        6.9385867028       10.9230646215
  H         4.5702986542        5.6142792151       11.8884545250
  C         2.6261702809        6.3562867955       11.1375568530
  H         7.4382663177        7.3052117106       32.3443806280
  H         7.7473644260        8.0229994670       30.8106801365
  C         6.5176241653        6.2891999316       30.9034358624
  H        -9.1777149692       10.6024490780       23.9662407291
  H        -8.5834209769        9.0985326326       24.1312763465
  C        -9.6459260370        9.6751226868       25.9058741829
  S        -4.1935237771       14.2753985948       37.0038726162
  C        -3.4433946642       16.7778472660       37.8687452062
  H         2.7226074840        5.7265867882       10.1979762144
  H         1.9054005748        5.9921349037       11.8676749322
  H         2.3132295624        7.2841754724       10.7956541979
  H         7.3536050056        5.7911548026       30.4106157947
  H         5.8285193097        6.3799544860       30.0646876047
  H         6.0846236733        5.5773147316       31.6188750484
  H        -9.2312037297        8.8247555098       26.3423843353
  H       -10.6243552198        9.4371797749       25.4830556035
  H        -9.6751855205       10.4525103230       26.6726262236
  C        -4.3869477663       14.8733227050       38.6636294361
  N        -4.0156488181       16.1841264995       38.8936742195
  O        -3.0355642117       17.9390353489       37.8779944063
  S        -5.0412361407       13.9063953870       39.9801776771
  C        -4.0679318986       16.8896046119       40.1618594131
  H        -3.9105488266       17.9580655082       40.0149040586
  H        -4.9916760814       16.7658205513       40.7061654315
  C        -2.9133655191       16.4532502990       41.0477438119
  H        -2.2803447412       17.3590405280       41.2485597851
  H        -3.3446263185       16.1555023970       42.0365924395
  H        -2.3272581002       15.6801904377       40.5464637206
