352
i=
  H         4.3084880587        1.4720834795       12.3928422244
  C         3.7013062026        2.4042244532       12.5278689912
  H         4.3055320375        3.3163090860       12.4933514362
  C         2.6359458257        2.4892748341       11.4390911087
  C         3.0353164848        2.2523179029       13.9597196332
  C         3.2444232537        2.5427270371       10.0186666736
  H         1.9381995429        3.2635690058       11.5231142098
  H         2.0094097923        1.6602116987       11.5182178467
  H         3.9124261216        2.1911249795       14.6185768312
  H         2.5726301268        1.2650066396       14.0937683143
  H         2.4063788473        3.0796522299       14.3203101660
  C         4.3094982738        1.5087074442        9.7696670554
  H         2.4080373148        2.4056500195        9.3588216855
  H         3.4311023696        3.6060985144        9.9024900085
  C         5.0017541116        1.6606929197        8.4645584515
  H         3.9040103593        0.5611318683        9.7726789796
  H         5.1334498815        1.5423129856       10.4987046442
  C         6.2046479888        2.5863264690        8.5966102157
  H         4.3823335015        2.0054470101        7.6163058710
  H         5.3136073743        0.5518451351        8.2416625093
  C         7.6105304639        1.8406641429        8.8834704732
  H         6.3467163922        3.2830722649        7.7320643203
  H         6.0104207355        3.1976720460        9.4615134331
  C         8.8653816106        2.8665268544        9.0331664170
  H         7.7016649436        1.0778546799        8.0790278817
  H         7.6102656197        1.2600366671        9.7831923477
  C         8.4802092482        4.1771635742        9.7084293262
  C         9.2177837312        3.6754915535        7.8237762211
  C        10.1132070349        2.2642886761        9.7484981610
  C         8.6761946557        5.3574547708        8.9935524888
  C         8.0630930691        4.5018121349       11.0125643390
  C         9.1648868216        5.0053115003        7.7480430933
  C         9.6211829235        3.0383034963        6.5985655596
  H         9.8165279539        1.6788168642       10.5712633799
  H        10.5526068695        1.6704553353        8.9251259927
  C        11.2049497611        3.1682638792       10.2110182694
  S         8.4558896486        6.8457418070        9.8310456622
  C         7.9353797601        5.8838597520       11.2098350689
  H         7.8530137687        3.7025500111       11.6718123278
  C         9.4665750116        5.6708640491        6.6101786222
  H         9.6454233603        1.9675962110        6.6660673942
  C         9.9681055823        3.7549203418        5.4760513917
  H        10.7557512752        4.0564929796       10.5445466909
  H        11.8779998688        3.5299292271        9.3394612962
  C        12.1221718721        2.7011966694       11.3079593127
  C         7.5751877553        6.5248441843       12.5248775026
  C         9.9941260394        5.1044693892        5.4338054410
  H         9.4048001728        6.7466989238        6.6407380298
  C        10.4239569184        3.3902188306        4.2230579850
  H        13.0392709753        3.2892350904       11.3243519804
  H        12.5207874691        1.7094839453       11.1694270994
  C        11.4298677233        2.8199754053       12.6884005689
  C         7.6148304741        7.9412178343       12.8055602640
  C         7.2378167999        5.6150776390       13.6979801769
  C        10.4421752031        5.9427868993        4.2157377264
  C        10.6394786960        4.5251934915        3.5020006711
  S        10.6020378654        1.9264621069        3.4413357272
  H        11.1017192360        3.8176044205       12.9424423061
  H        10.4982975734        2.2471186344       12.7142824790
  C        12.3482951583        2.0694980385       13.6121257735
  N         7.9055782179        8.9066605844       11.8862759072
  C         7.3979799536        8.3963806041       14.1000316211
  C         7.0437780838        6.2165430765       14.9953803436
  H         7.1022137679        4.5435928660       13.5576362903
  C        11.7537974361        6.7417071951        4.3735264923
  C         9.2889849374        6.7626239789        3.5306018292
  C        11.0256747711        4.1697653639        2.2177658158
  C        11.2016945738        2.8050328789        2.0671934544
  H        13.3704406281        2.2807508314       13.4894298980
  H        12.1567279524        0.9948313430       13.6008081362
  C        12.0956809363        2.6721326891       15.0253960258
  S         7.8288892444       10.3409122792       12.6707842083
  N         7.5339144960        9.7960593736       14.1203266573
  C         7.0494541363        7.6315465444       15.2662545021
  H         6.8676263252        5.5674144302       15.8330396020
  H        11.5557522824        7.4644737943        5.1683019144
  H        12.0867000540        7.2898599107        3.5106946630
  C        12.9708028022        5.9135496322        4.7678200907
  H         8.8321562459        7.3685505777        4.2927645485
  H         9.7512832237        7.3203802744        2.7316840182
  C         8.2271085231        5.8742825575        2.8210265924
  H        11.1065441665        4.9550915684        1.4948962233
  C        11.3693499202        2.0240651396        0.7790648279
  H        12.0984527277        3.7338678997       14.8392913698
  H        11.0659577325        2.5514477067       15.3910607178
  C        13.0744631708        2.0143821802       16.1110522699
  C         6.7715576620        8.2310211350       16.5096224466
  H        12.8153697097        5.2390756476        5.6345206199
  H        13.2936335273        5.2330975233        3.9855191837
  C        14.1289798511        6.7987526262        5.2470197372
  H         7.7841321718        5.1697022835        3.5033769312
  H         8.5522815870        5.3414176187        1.9030940177
  C         7.0770816982        6.7114644082        2.2948656625
  C        11.6144605590        0.6342783227        0.6977583319
  C        11.5227471574        2.7715442010       -0.4890236731
  H        14.1078314173        2.4320202133       15.9588702525
  H        13.2077438827        0.9428096129       15.9087090217
  C        12.6043422082        2.3036980440       17.5209202270
  H         7.0958322425        9.2410539882       16.4970156348
  C         6.2718687008        7.7529361180       17.6846238673
  H        13.8302324025        7.2764842746        6.1865261001
  H        14.2992379798        7.6213986532        4.5595929445
  C        15.3976516308        5.9714523689        5.4502751847
  H         6.9257311752        7.5554142271        2.9867633010
  H         7.3440810675        7.2610502772        1.4184155186
  C         5.8235968245        5.9014496234        1.9277919955
  N        11.4901022717       -0.2630365147        1.7387601191
  C        11.8989533301        0.0499306339       -0.5243714244
  C        11.9138694747        2.1577959115       -1.6940893566
  H        11.3769865256        3.8069926442       -0.5691284850
  H        12.3917897382        3.3187619249       17.5578473283
  H        13.3615858095        2.1200633223       18.2391648987
  H        11.7663776733        1.8362887011       17.8251946008
  S         5.9919507780        6.0829031409       18.1054394365
  C         6.1652351280        8.6823867865       18.8438457395
  H        15.1880002140        4.9764390777        5.8142365730
  H        15.9200256793        6.0349825532        4.5424906740
  C        16.3024057888        6.6433309485        6.5162742727
  H         5.3420542310        5.6279056378        2.8511221651
  H         5.9841324422        5.0298415537        1.2937684654
  C         4.7212733442        6.7210430662        1.1643499650
  S        11.5981357766       -1.7609367081        1.1370289380
  N        12.0231567518       -1.3886625517       -0.3739274178
  C        12.1259643706        0.7212639850       -1.7404658029
  H        11.7688856748        2.6745215806       -2.6619416112
  C         5.6592183911        6.7022812820       19.7618869295
  N         5.7858397094        8.0478827539       19.9728333699
  O         6.3327851513        9.9249104239       18.7959983859
  H        16.7707798376        7.5279197428        6.0393817244
  H        15.6592419463        6.9412730498        7.2892222422
  C        17.4248066735        5.6251493726        6.9111743876
  H         5.2515767311        7.1947216012        0.3242003626
  H         3.9731147477        6.0787356134        0.8318969663
  C         4.0940761407        7.9202954008        1.9370531241
  C        12.5470976444       -0.0030112147       -2.9223910109
  S         5.6549711883        5.7985266961       21.2213177178
  C         5.6959222073        8.7752296680       21.2401595959
  H        17.3267673042        5.5383385585        8.0060368710
  H        17.2823672271        4.6640538764        6.5208125152
  C        18.7934825657        6.2210478994        6.6059502081
  H         4.7228414970        8.2907994583        2.7679646179
  H         3.1378677376        7.5161970316        2.3195226312
  C         3.9608144385        9.0976129154        0.9265058828
  H        12.1592263189       -1.0405250888       -2.8676193059
  C        13.0491761468        0.3246174697       -4.1289697595
  H         4.7763723610        8.2853333256       21.6653580233
  H         5.4697686588        9.7390691784       21.1806330461
  C         6.9721389585        8.7654724459       22.0635515566
  H        19.5970263979        6.0405255775        7.2977721059
  H        18.7596613722        7.2842992594        6.5774649778
  C        19.2771066596        5.7124556365        5.2712296346
  H         5.0265168698        9.4742108593        0.8072512718
  H         3.5024659107        8.6853319226       -0.0115226164
  C         3.2807086013       10.3285064478        1.5091039686
  S        13.7075149680        1.8149707904       -4.5845071731
  C        13.1305712314       -0.8253676325       -5.1466594674
  H         7.8896492831        8.8911666568       21.3905550988
  H         7.0960949581        7.8743301469       22.6895416605
  H         6.9696272807        9.6567722640       22.7366614070
  H        19.7594444045        4.7168709268        5.3354383801
  H        18.4492420400        5.6231992328        4.5680691615
  H        19.9738854625        6.4205059807        4.8835925324
  H         3.3458943035       11.2221848078        0.8009164413
  H         2.2327576539       10.1573149677        1.6157675669
  H         3.7549380027       10.5131063293        2.4669619667
  C        14.1726466682        0.9060425668       -6.1011847065
  N        13.8572357939       -0.3595544806       -6.2139757026
  O        12.6263412123       -1.9633417618       -5.0332725248
  S        14.8519423207        1.7317281272       -7.5926694216
  C        14.0684317698       -1.1928417790       -7.4265567406
  H        13.9705355335       -2.2472707794       -7.1470265866
  H        15.0253242071       -1.2276787547       -7.8269415134
  C        13.0817855579       -0.7553958858       -8.5573617432
  H        12.7175100628       -1.6745743987       -9.0099450237
  H        13.5589960039       -0.0466849151       -9.1898875988
  H        12.1971522010       -0.2387620615       -8.1752593444
  H        -3.4188332051       14.6378720628       16.3182488118
  C        -3.1810487775       13.5636411630       16.1694425829
  H        -4.1047371733       12.9236495688       16.2809500118
  C        -2.0547538220       13.2572254989       17.1772057321
  C        -2.7189743054       13.4432938542       14.6821525010
  C        -2.4440792879       13.6415853719       18.5951484455
  H        -1.8260073634       12.2368676647       17.1414429734
  H        -1.1111812502       13.7491574307       16.9707448641
  H        -3.0961963194       14.1822109767       13.9772260258
  H        -1.6400779646       13.4322203305       14.5767455591
  H        -2.9624587126       12.3767622167       14.3762183877
  C        -1.5585946058       13.0445665158       19.7356203737
  H        -3.4284333648       13.2734227750       18.7448393429
  H        -2.6815381429       14.6645604835       18.7596500448
  C        -2.0942687953       13.4002209007       21.0842983389
  H        -1.5065973265       11.9875811636       19.5560712807
  H        -0.5557685217       13.4972297675       19.6692358070
  C        -1.1643715505       12.8731274825       22.2354107681
  H        -3.1002693956       12.9197890394       21.3001267640
  H        -2.1791036519       14.4620082908       21.1335739914
  C         0.0729188723       13.7994950108       22.4138023736
  H        -1.7622741875       12.7302749573       23.2118273739
  H        -0.8588004426       11.8707184980       21.8622553496
  C         1.2434061804       13.1207862575       23.1545450832
  H         0.4818869412       14.1779608037       21.4632465507
  H        -0.4046222447       14.5404220802       23.0192059191
  C         1.6419986805       11.8332431574       22.4026907430
  C         0.7715932316       12.3370893216       24.3929240876
  C         2.5031702499       14.0270141974       23.2980586587
  C         1.3928918019       10.6799609619       23.1335881778
  C         2.1522747253       11.4755728747       21.1084031956
  C         0.8586054798       10.9787186308       24.4170765000
  C         0.3033942558       12.8628597605       25.5702705181
  H         2.6474681906       14.5174327941       22.3410683864
  H         2.3163698241       14.7734142113       24.0281285691
  C         3.7816871233       13.3087530349       23.8895202501
  S         1.9778142148        9.2970300236       22.4039063456
  C         2.3603933049       10.1420052370       21.0513855918
  H         2.2920006981       12.2560055179       20.4133545880
  C         0.5114491130       10.3490747815       25.5517419736
  H         0.3288434271       13.9837814111       25.6389756506
  C        -0.0661247308       12.2620213303       26.7397611434
  H         3.9574584031       12.3352282349       23.4782831012
  H         3.5673742400       13.2365374701       24.9828240331
  C         5.0439374019       14.0642279899       23.8417967030
  C         2.6031356721        9.4087769847       19.7954466742
  C        -0.0947196287       10.9079889628       26.7387759281
  H         0.6559981490        9.2813547291       25.4633321664
  C        -0.5289052662       12.6186117624       27.9683321867
  H         5.8660944331       13.6588909625       24.4794044745
  H         4.8666309562       14.9793072980       24.3449602072
  C         5.6926270908       14.2916307231       22.4423951698
  C         2.4334414787        8.0172304576       19.6340477269
  C         2.9345288910       10.1538095357       18.5423749534
  C        -0.5492031090       10.1206886049       27.9755872006
  C        -0.7629304684       11.4704175065       28.7018349997
  S        -0.9524197319       14.1060320593       28.8157823509
  H         6.5884046887       14.8961679119       22.6916363558
  H         4.9599607108       14.9063857480       21.9833584405
  C         6.3057531397       13.0819712915       21.7389505677
  N         2.1610372204        7.0004612036       20.5726922814
  C         2.6659540771        7.4449072485       18.3619513103
  C         3.1001494729        9.5942257363       17.3040707526
  H         3.1246089339       11.1945502265       18.5591924962
  C         0.5106392958        9.2602904235       28.6087046574
  C        -1.8374283342        9.3285543371       27.5788576926
  C        -1.1310731872       11.7347626393       30.0705701894
  C        -1.3014046224       13.0691222853       30.2512623965
  H         7.2875698027       13.4422729063       21.5031923705
  H         6.4289918930       12.1086976514       22.3442505216
  C         5.5060119883       12.8460632656       20.5384981804
  S         2.1660482782        5.5253818129       19.9137329577
  N         2.5657574792        6.0594113441       18.4168593584
  C         3.0968085345        8.1673192466       17.1616968552
  H         3.2264832682       10.1734417696       16.4107412701
  H         0.8308876797        8.6905024152       27.6943243702
  H         0.0282098253        8.5863106954       29.3460392641
  C         1.6652144246       10.1222682262       29.1571078542
  H        -1.7134329780        8.7167567055       26.6610269196
  H        -2.1370501904        8.5235522677       28.3283510361
  C        -3.0714769570       10.0993289674       27.5057268895
  H        -1.1453586439       10.9338503340       30.7930351970
  C        -1.7068878412       13.6635760760       31.5759386032
  H         4.4422872802       13.0465334866       20.7197368077
  H         5.6416040300       11.8160130143       20.2223517285
  C         6.0002815873       13.7382527060       19.4562652603
  C         3.3577124170        7.4879545717       15.9740104190
  H         1.9990946254       10.7468731173       28.3293078526
  H         1.3736422950       10.8944540928       29.8799024606
  C         2.7724841857        9.2675040966       29.8427311093
  H        -2.9527204581       10.9256815647       26.7963903536
  H        -3.2412646667       10.4878233982       28.4968241278
  C        -4.3157447151        9.2815187225       27.1920625791
  C        -1.8617446898       15.0575080241       31.8199803599
  C        -1.8025009201       12.7723443094       32.7172962776
  H         5.1792135112       13.7496044306       18.6699548232
  H         6.3111644485       14.7512018824       19.7884362670
  C         7.1268229262       13.2165128110       18.6685110081
  H         3.3322335440        6.4228388567       16.0373895103
  C         3.7049402479        7.9363318835       14.7273476543
  H         2.9614017079        8.3853325608       29.2060040220
  H         2.5444875187        8.8803452082       30.8689006358
  C         4.1232691715       10.0877917561       29.8726378541
  H        -3.9050678336        8.6526056361       26.4137695725
  H        -4.4656210652        8.5784207813       28.0405814217
  C        -5.4048014093       10.0423452163       26.5435171924
  N        -1.9203202674       15.9943554765       30.8493016261
  C        -2.0975629240       15.6184410433       33.0827504361
  C        -2.0636060383       13.3321383818       33.9180168583
  H        -1.8573108743       11.7141185192       32.6805575531
  H         6.8693491954       12.2963497017       18.1578127845
  H         7.3455567492       14.0085542967       17.9317555009
  H         8.0736897412       13.0527974927       19.2283011896
  S         4.0098586909        9.5166277497       14.0956457518
  C         3.8880282933        6.8873872848       13.6892996258
  H         3.9710978001       10.9717518257       29.3780376986
  H         4.3838708536       10.3580728420       30.9110781658
  C         5.2792440362        9.2099864565       29.4344664339
  H        -5.0584770478       10.5683144510       25.6705029325
  H        -5.6417514743       10.7997342765       27.2205657333
  C        -6.6241660495        9.2396547995       26.0929907692
  S        -2.0149624461       17.4667517616       31.5524554967
  N        -2.2328568797       17.0353214141       33.0862816144
  C        -2.2798213144       14.7831246987       34.1853833937
  H        -2.1231351892       12.7348198420       34.7778090750
  C         4.2219409151        8.8443447046       12.5021764653
  N         4.1009816058        7.5023165942       12.4814793170
  O         3.7832518658        5.6830008791       13.8661317828
  H         6.1353995144        9.9446401002       29.3435544497
  H         5.1335916309        8.8002635092       28.3942153115
  C         5.6629776003        8.1750647298       30.4474514731
  H        -6.3660550106        8.2264630678       25.6098554288
  H        -7.1837592743        8.9286128218       26.9950386393
  C        -7.5263144080       10.1214393502       25.1895726239
  C        -2.5068767623       15.4174935934       35.4114152780
  S         4.7860288379        9.6918580586       11.0735079120
  C         4.0006598640        6.7523483796       11.2910633852
  H         6.1651884238        8.7044065279       31.2108667456
  H         4.7524908312        7.7287948793       30.8321621029
  C         6.5207064521        7.0359484958       29.8963712142
  H        -7.1901032477       10.1757728207       24.1940870680
  H        -7.6529595933       11.1154474873       25.7327716096
  C        -8.9783070691        9.5403687774       25.0764877544
  H        -2.2046531038       16.4140626872       35.4495376691
  C        -3.1518091492       15.0263864046       36.5856663295
  H         4.6875711211        7.0755718509       10.5395225225
  H         4.2190633884        5.7164731402       11.5112150051
  C         2.5984139710        6.8077182234       10.7219123932
  H         7.3601768549        7.4424469757       29.2854222885
  H         5.9108313191        6.6459207983       29.1275962135
  C         6.8638868747        6.0065348932       30.9097364583
  H        -9.3388686521        9.9627586267       24.0994920928
  H        -8.7829297635        8.4659257532       25.0219775102
  C        -9.8808790819        9.8633850100       26.2425853691
  S        -3.6627341205       13.4342965473       36.9672749844
  C        -3.3459519926       16.0759433812       37.6392637653
  H         2.4040097525        6.2586093817        9.7748854519
  H         1.8229351735        6.6170089774       11.4754208374
  H         2.4339962552        7.7784035592       10.3270627359
  H         7.6110273261        6.3874551584       31.5863891803
  H         7.2449131014        5.1020411713       30.4086918226
  H         5.9377749000        5.7952071595       31.4961456938
  H       -10.0703722685        8.9435425453       26.8160027336
  H       -10.7506570792       10.2200055672       25.6971262919
  H        -9.5159416172       10.6483589612       26.8770376711
  C        -3.8508376752       14.0930069410       38.5712551266
  N        -3.7986441898       15.4537175384       38.7079075554
  O        -3.0586726420       17.2584650017       37.4712533814
  S        -4.4304024575       13.1174210992       39.9058720438
  C        -4.0864681772       16.1857682701       39.9173265010
  H        -4.4218068908       17.2053776029       39.6810633060
  H        -4.8031384665       15.7349394811       40.6433874610
  C        -2.7598712918       16.4690770759       40.6831821050
  H        -1.8851694339       16.6942866569       40.0572817922
  H        -2.7465156223       17.3178079917       41.4459182701
  H        -2.5213822866       15.5626230368       41.2191952911
