352
i=
  H         2.7405068103        1.1153459586       13.2417359470
  C         3.4898491165        1.5259257761       12.5969239756
  H         3.9603362786        0.6626028510       12.1166546988
  C         2.8404615679        2.3935377397       11.5865405953
  C         4.5514900745        2.1444326978       13.4391739506
  C         3.6664510969        2.6374766478       10.2976910557
  H         2.6933425737        3.4198609176       12.0074774334
  H         1.7429742688        2.1332585306       11.5292470112
  H         4.3059153117        1.9167376624       14.4793158489
  H         4.5656453654        3.2466468334       13.4024037366
  H         5.5371984560        1.6146090905       13.2825269079
  C         4.4579287018        1.4320774832        9.8301191971
  H         3.0344165578        2.9964927283        9.5091722589
  H         4.3573126677        3.5148796611       10.4606135621
  C         5.2033611889        1.7611624244        8.5360217779
  H         3.7811719581        0.5998784280        9.8085935843
  H         5.2400369977        1.2050049772       10.5839211752
  C         6.4913897311        2.5638235373        8.7662769441
  H         4.6319089278        2.3969240377        7.8451378193
  H         5.4544820627        0.8188238409        8.0961615089
  C         7.7462424085        1.8340738698        9.3448240744
  H         6.7851332458        2.9041604670        7.8260894707
  H         6.1818750375        3.4442983666        9.3461098364
  C         8.9559726159        2.7451916397        9.5781252885
  H         7.9999719688        0.9201363125        8.7666341550
  H         7.4296234790        1.3146946620       10.2694970399
  C         8.5513381068        4.0532832300       10.2071512960
  C         9.3637620985        3.4397962959        8.3227039589
  C        10.0983603984        2.0046378749       10.3288432384
  C         8.7836440886        5.1571044650        9.3919476656
  C         8.1305100018        4.4456841462       11.4703556850
  C         9.3469702465        4.7969069145        8.1994981980
  C         9.8375871578        2.8166728491        7.2102235402
  H         9.5973554889        1.4081981322       11.0783529897
  H        10.5029191041        1.3041150108        9.6130883848
  C        11.2435991485        2.9061172089       10.8246335469
  S         8.3314964454        6.6201582848       10.1318072092
  C         7.9629255738        5.8202529731       11.6236180480
  H         7.8751033593        3.7118203018       12.1705446267
  C         9.6844599716        5.4057800175        7.0333824161
  H        10.0372929016        1.7590385834        7.2483852882
  C        10.1517562627        3.3848355364        6.0228968246
  H        10.7749685517        3.6558306887       11.4353833342
  H        11.7728416094        3.5524189020       10.1413982867
  C        12.4736465426        2.1774797862       11.5540240090
  C         7.6037946772        6.4531115344       12.9339375924
  C        10.1040108951        4.7619917888        5.8588241747
  H         9.5597238890        6.4891401265        6.9033396740
  C        10.5552330584        2.9792970038        4.7801103737
  H        13.3738122375        2.8305074112       11.6760867627
  H        12.8503900817        1.3600767834       10.8855909519
  C        12.1045952417        1.7312848401       12.9650237181
  C         7.6491296875        7.8189681105       13.1935457702
  C         7.2318099587        5.5712937369       14.0675217556
  C        10.6296116882        5.4364714518        4.5517308133
  C        10.8228391473        4.0352435660        3.9250152047
  S        10.7041159930        1.4414550511        4.1302133229
  H        11.6412069188        2.6573339823       13.4563810301
  H        11.4204975350        0.8547166114       12.9084158851
  C        13.3911678155        1.4481239690       13.6236780257
  N         7.9404694977        8.7813018112       12.2508609678
  C         7.3644744666        8.3785537947       14.4355572695
  C         6.9702191811        6.1447738088       15.3003944752
  H         7.1844131203        4.4887455730       13.9632927960
  C        11.9769852162        6.1369524157        4.6337963269
  C         9.5867073849        6.3152033424        3.8590775549
  C        11.1681306246        3.5442613087        2.6689383432
  C        11.2122689702        2.1882273231        2.6199460307
  H        14.0893826158        2.2702027019       13.6733256638
  H        13.8919499849        0.7201464504       13.0694789777
  C        13.3075111683        0.9369889477       15.0177285642
  S         7.9424251763       10.2277466174       12.9360757327
  N         7.4462423066        9.7500467726       14.3866774446
  C         7.0840702592        7.6330422408       15.5662258967
  H         6.7961360030        5.4243108402       16.0609047155
  H        11.9161293765        7.0754544958        5.0450063377
  H        12.3353090029        6.3575775654        3.5964871566
  C        12.9878259422        5.2240883523        5.3410219927
  H         9.3403936000        7.1100056531        4.5349672532
  H        10.1755018209        6.8494835993        2.9998314744
  C         8.3404530193        5.5472084522        3.3620680812
  H        11.3291180167        4.3273181950        1.9080554590
  C        11.5266626291        1.4312101138        1.4177559379
  H        12.8830406304       -0.1085906987       15.0590862338
  H        14.3288130089        0.9580184697       15.4237301371
  C        12.5636998407        1.7949420751       15.9531239186
  C         6.8020993843        8.2766189519       16.7847463322
  H        12.5791400084        5.0731535481        6.3147307388
  H        13.0903071865        4.1671611301        4.9804073994
  C        14.3344638573        5.9017067104        5.3919132284
  H         8.1587066860        4.7780046476        4.0641392602
  H         8.5854974710        5.0528468330        2.4670221378
  C         7.0812714324        6.3681315313        3.1885676021
  C        11.5659377340        0.0281528646        1.2735422716
  C        11.5979527791        2.1858374875        0.1708334619
  H        11.5964555124        2.0171154368       15.5862295393
  H        13.0710607457        2.6961192214       15.8407141440
  C        12.5366757456        1.2739086452       17.3388749421
  H         6.9204314194        9.3224456991       16.7211525554
  C         6.4677531961        7.7421487052       18.0198324365
  H        14.2470532648        6.9289271238        5.7352048245
  H        14.8684486993        5.9078067226        4.4426596755
  C        15.2652540264        5.1809010405        6.3525567867
  H         6.9861275308        7.0472754396        4.0568825501
  H         7.0959763133        6.9433909852        2.2217029870
  C         5.9138599698        5.4251012620        3.1279591836
  N        11.3545945734       -0.9441635336        2.2837425962
  C        11.9422430029       -0.6058952023        0.0950021491
  C        12.0079482018        1.6122526466       -1.0138373171
  H        11.4051485990        3.2978980402        0.1865973832
  H        11.4382915110        1.0229866819       17.5988657710
  H        12.9734829082        1.9191357950       18.1208201234
  H        13.0171517048        0.3340408923       17.4499221122
  S         6.1305625718        6.0989848436       18.4303411077
  C         6.4602269482        8.6722366954       19.1592092496
  H        15.1918019171        5.5576287426        7.4152405643
  H        14.9842547732        4.1718690157        6.4969804667
  C        16.7128455263        5.1875805522        5.8630934244
  H         5.7525487915        5.0947340831        4.1816880664
  H         6.2204700945        4.6082677827        2.4882738698
  C         4.5411338704        5.9748507023        2.6077846547
  S        11.5527107374       -2.4478032052        1.7948093897
  N        12.0013232214       -2.0577866738        0.2409604286
  C        12.2362025589        0.1281028846       -1.1071671842
  H        12.1059059370        2.2016674013       -1.9434986677
  C         5.8869085250        6.6804642792       20.1218398976
  N         6.1445049617        7.9875321334       20.3025376053
  O         6.6120112379        9.8667363975       19.0472300440
  H        16.8756805882        4.7681702059        4.8621184842
  H        16.8590319371        6.2606494834        5.9224133174
  C        17.6584816227        4.5283447687        6.9315566535
  H         4.5399537604        6.0981816144        1.5302156702
  H         3.8323596690        5.1333444732        2.6851810946
  C         4.1373165550        7.2565320986        3.4159721250
  C        12.5849776686       -0.5957325780       -2.3143637891
  S         5.6948268996        5.6331029166       21.4636837550
  C         6.1342125995        8.6652921139       21.5777816081
  H        17.0456999551        4.3157601781        7.8468917267
  H        18.0219181633        3.5603053605        6.7252605237
  C        18.7788604115        5.4053273378        7.3673943134
  H         4.6249506322        7.2485963727        4.3844303609
  H         3.0493930251        7.2724114035        3.5301158097
  C         4.6109387576        8.6017755794        2.9244772819
  H        12.3524486348       -1.6831020320       -2.1164061675
  C        13.0055415631       -0.3045261649       -3.5358130070
  H         5.5856306061        8.0471103981       22.3225725427
  H         5.6148781603        9.6123321406       21.3988704875
  C         7.5971416114        8.8770582006       21.9869067294
  H        19.3217182346        5.0518946760        8.2342555762
  H        18.3678045527        6.3557035139        7.7181967955
  C        19.6610824614        5.6536251312        6.1962887586
  H         4.0684368012        9.3049343534        3.5473876966
  H         5.6339398732        8.8024298918        3.1472808867
  C         4.3782013344        8.8969908746        1.3634820123
  S        13.6830558992        1.2435058799       -3.9665269391
  C        13.0863201604       -1.4042614951       -4.6041534897
  H         8.0658436924        7.9082316659       22.1231327471
  H         7.5761289763        9.4766057739       22.9443082364
  H         8.1358977690        9.4632742854       21.2789949766
  H        19.5868250391        4.8515875097        5.4972980652
  H        19.3628189743        6.5424021616        5.6505753566
  H        20.6909937613        5.6731519343        6.6465483135
  H         3.8867703694        9.8361929084        1.1144809202
  H         5.3770329248        8.8860491710        0.8310836204
  H         3.8796799230        8.1276355206        0.8503775528
  C        14.0364473172        0.4270526851       -5.5119390408
  N        13.7272894550       -0.9272047706       -5.6566652842
  O        12.7015376006       -2.5634167449       -4.4215610916
  S        14.8798894351        1.4121217397       -6.7983544445
  C        13.8564045784       -1.6754115868       -6.9183759801
  H        14.1272561119       -2.7570395003       -6.8630060383
  H        14.6486342327       -1.0919253003       -7.4012705645
  C        12.6687173901       -1.5741808818       -7.7658604845
  H        11.7888519284       -1.5516400131       -7.1445834970
  H        12.5372453526       -2.4937616143       -8.3502490477
  H        12.7913860441       -0.7128081904       -8.4401662306
  H        -3.7387098584       12.5874451376       16.8785537286
  C        -2.7132665715       12.8494143724       17.1861117590
  H        -2.2012216439       11.9659426850       17.6125557034
  C        -2.9459060164       13.9927213590       18.0760319194
  C        -2.0044125803       13.2844927280       15.8571636819
  C        -3.2734396412       13.4338484994       19.4098585096
  H        -2.0602544377       14.6016749989       18.1005828946
  H        -3.8103914768       14.6088600370       17.7254297412
  H        -2.2026273900       12.5198853214       15.1333012265
  H        -2.4239102389       14.2043812876       15.4738790358
  H        -0.9093022556       13.4439713109       15.9561589920
  C        -2.0352822176       13.1101348413       20.2920965843
  H        -3.8860533693       12.5712411991       19.5098992893
  H        -3.8946028881       14.2220631936       19.9137218870
  C        -2.3848045642       13.0599602126       21.7878689748
  H        -1.6078242766       12.1521256890       19.9436766939
  H        -1.2359805259       13.7473914136       20.1185629669
  C        -1.3607233531       12.3661046776       22.7043681837
  H        -3.3451467918       12.5930345789       21.8802354061
  H        -2.5303109005       14.0702297652       22.1839458151
  C        -0.2050069056       13.3260204257       23.1575619514
  H        -1.8739418413       11.9839694436       23.5637104930
  H        -0.8379971909       11.4912195174       22.3248428196
  C         1.0922917604       12.5968002539       23.7966565655
  H         0.2275372902       13.7610050318       22.2467582519
  H        -0.4839886066       14.1794638997       23.8200398271
  C         1.4791985995       11.2590039407       23.0790767024
  C         0.7040590394       11.9099408599       24.9989473662
  C         2.2069938605       13.6181395988       23.9613691549
  C         1.2020816793       10.1486728186       23.8052468463
  C         1.9238649304       10.9855636342       21.7111940642
  C         0.7506030684       10.5259847338       25.0644757550
  C         0.1118603996       12.4837488474       26.1290483322
  H         2.2364062890       14.2864881576       23.1066044887
  H         1.9737887206       14.2558594878       24.8293358008
  C         3.5777296991       12.9911858788       24.1119842359
  S         1.5251438869        8.6199495671       23.0015352317
  C         2.0009408851        9.5905933860       21.5791497827
  H         2.0960875406       11.7396417864       20.9544702741
  C         0.2757269747        9.8856639185       26.1922394672
  H         0.0395892690       13.5822437319       26.1261853636
  C        -0.2545962143       11.8610373520       27.2466149282
  H         3.8612988818       12.3558248969       23.2505157691
  H         3.4682594359       12.3813205934       25.0036084197
  C         4.7704117649       13.9292260934       24.4830201396
  C         2.4114333667        8.8787907097       20.3619378505
  C        -0.1795848313       10.4807773364       27.3332419413
  H         0.2607170719        8.8152262548       26.1931813822
  C        -0.5735199539       12.2335780723       28.5785507860
  H         5.3824001744       13.2857235676       25.0515215588
  H         4.4511706849       14.6426080380       25.1987382648
  C         5.2132986778       14.6245505929       23.1491128057
  C         2.3632711178        7.4584676589       20.0530542817
  C         2.8329056092        9.6961973779       19.1604245105
  C        -0.5501022750        9.7695873645       28.6304659800
  C        -0.7898019243       11.1607387453       29.3613986025
  S        -0.8181696327       13.7074657383       29.3302099056
  H         5.7605227044       15.5276397075       23.2710231257
  H         4.3530303887       14.8912048686       22.5508696480
  C         6.1427160882       13.7829217649       22.2193571252
  N         1.9672577115        6.5505841527       20.9304358134
  C         2.6414316129        6.9599005463       18.7598690316
  C         3.1860318235        9.1358172286       17.9361795449
  H         2.9597948730       10.7933603664       19.2561836659
  C         0.5987654127        9.0302998657       29.3043153021
  C        -1.7532623382        8.8612899386       28.5337186156
  C        -1.0520404415       11.5302541500       30.6844553833
  C        -1.0360170192       12.8950932047       30.8267313120
  H         7.1236245421       14.1951572447       22.1920100003
  H         6.3269463449       12.8264663035       22.7202043471
  C         5.5567007501       13.7596000957       20.7579953967
  S         1.8637766563        5.0900071668       20.1413563037
  N         2.4973376124        5.6127355084       18.7318847971
  C         3.0356127248        7.7198630837       17.6592499126
  H         3.4885991193        9.8310284986       17.1229073484
  H         0.9270664220        8.2361303966       28.6456521370
  H         0.1864952190        8.5503093098       30.1731758517
  C         1.7908977382        9.9337955873       29.7275220270
  H        -1.4280795238        8.1504834118       27.7700566871
  H        -1.8626532079        8.2676439943       29.4624665192
  C        -2.9053464711        9.6734395431       28.1920849952
  H        -1.3136346130       10.7124484575       31.4054505476
  C        -1.3904988769       13.7433216429       32.0295919258
  H         5.0833573185       14.7329324261       20.4964661539
  H         4.7540807044       12.9973522823       20.8187554676
  C         6.4976543761       13.3467175496       19.6504910209
  C         3.3629006620        7.0377842501       16.4425515283
  H         1.8907236354       10.7855765601       29.1024358800
  H         1.5781344525       10.4079886372       30.6270934134
  C         3.1519050545        9.2579611899       29.6627424225
  H        -2.7182189369       10.3219455158       27.3234339706
  H        -3.1785301153       10.1952420522       29.0713562562
  C        -4.1605560224        8.8887217209       27.6946830836
  C        -1.5490269181       15.1997104969       32.0198333873
  C        -1.8115338909       13.0869012787       33.3275066533
  H         7.2485293841       14.0695375978       19.3274094764
  H         7.1079362475       12.4934040209       20.1032940210
  C         5.7150802110       12.7333230217       18.5222296187
  H         3.2992257635        5.9960323802       16.4504534489
  C         3.6901128835        7.4489885691       15.1685040002
  H         3.3917525530        9.0343852994       28.6400012215
  H         3.1159070537        8.2860981373       30.1200589265
  C         4.2308667010       10.0563317589       30.3800278809
  H        -3.9578407120        8.1837073510       26.8621477590
  H        -4.4998892978        8.3259339696       28.5128115216
  C        -5.0858180924        9.8886761210       26.9216185722
  N        -1.3158905240       16.0429067451       30.9752318224
  C        -1.8274643120       15.9839688506       33.1254895210
  C        -2.1462271161       13.9118947589       34.4411517532
  H        -1.6428744911       12.0376207372       33.5620836491
  H         5.2772294990       13.5205151592       17.9978572543
  H         6.3675732237       12.3162766444       17.8018116810
  H         4.9902438308       11.9350635952       18.8943064467
  S         3.9658027567        9.0417714274       14.6077183244
  C         3.8476818543        6.4650969814       14.0962481954
  H         4.1010301279       11.1395517751       30.1524320897
  H         4.0080928162       10.0902231134       31.4470111031
  C         5.6717033507        9.6416166100       30.0684168423
  H        -4.5477995547       10.2974904870       26.0597194915
  H        -5.2761859109       10.7815436228       27.4773069447
  C        -6.4230138131        9.3354895501       26.4848132140
  S        -1.2955169468       17.5881007947       31.4204164901
  N        -2.0132257946       17.3910240013       32.8604774077
  C        -2.0857850246       15.3659546862       34.3955941313
  H        -2.3107027973       13.3952273916       35.3660365950
  C         4.2809781323        8.3686027878       13.0568388181
  N         4.1801033994        7.0612388442       12.9340880494
  O         3.6124581393        5.2241763782       14.3108079974
  H         6.3209603682       10.3963881263       30.4030204862
  H         5.7687215452        9.6109936359       28.9571200845
  C         6.0703567685        8.4012836136       30.7715650678
  H        -6.3497157652        8.6545860781       25.6445816534
  H        -6.8033601801        8.7177910114       27.2678637881
  C        -7.3323859793       10.3738839345       25.9558446191
  C        -2.3375491128       16.2566667861       35.5229967706
  S         4.6613379843        9.3414933378       11.6174141300
  C         4.2337266419        6.3994178052       11.6774958644
  H         6.9003052667        8.6941647673       31.4731310560
  H         5.3006326499        7.9294063624       31.3909657975
  C         6.7198811335        7.4992736629       29.8050811301
  H        -6.7942932956       10.9773634343       25.1998436584
  H        -7.6588515943       11.1015678862       26.6487200523
  C        -8.6170137514        9.7171786188       25.2399787039
  H        -1.9464796997       17.2748544244       35.4537848657
  C        -2.9182653798       16.0303065138       36.7418602733
  H         5.0984342632        6.7183727290       11.0860074204
  H         4.4074440585        5.3123946607       11.8265892308
  C         2.9272479694        6.5383214861       10.9193998453
  H         7.7711519422        7.7338410467       29.6460096463
  H         6.1755008083        7.5219256128       28.8567450588
  C         6.7381254962        6.1844688400       30.5819406823
  H        -8.9118261456       10.1571128499       24.2662038574
  H        -8.4200955126        8.7564779592       24.9697243194
  C        -9.7681147116        9.8512254775       26.2354913397
  S        -3.7672859472       14.6283456691       37.3595419831
  C        -2.8550295079       17.1620306820       37.7419269452
  H         2.0805156257        6.8266733280       11.5045242089
  H         3.0980577158        7.2201325711       10.0583308854
  H         2.6570881522        5.5910543198       10.4867655298
  H         5.7795794276        5.7823748586       30.7739522757
  H         7.3145526396        6.2647667864       31.4789966319
  H         7.3090783034        5.3703501595       30.0810208460
  H       -10.1690269723       10.8523412836       26.4697217952
  H        -9.4370572805        9.5274678646       27.1991367285
  H       -10.4810059032        9.1064448039       25.9509472950
  C        -4.1649380413       15.5917066678       38.7917805186
  N        -3.5234616698       16.7802475727       38.8418281588
  O        -2.2256241783       18.2002502052       37.6196934207
  S        -5.0603693590       15.0474835982       40.1868927691
  C        -3.4402511500       17.5364025078       40.1177305334
  H        -3.4874705553       18.5642405970       39.8078921035
  H        -4.2753696241       17.3750110892       40.7759267230
  C        -2.2516188128       17.1222225640       40.9627268111
  H        -2.0677848815       17.7862171936       41.7979319632
  H        -2.3822715491       16.0980926979       41.4845117829
  H        -1.3328012548       17.1560602741       40.3457910594
