352
i=
  H         4.6181303361        1.2714981407       12.4274030610
  C         4.1791653305        2.2604075978       12.5913134318
  H         5.1159664461        2.8164707806       12.6738443191
  C         3.3476332930        2.6480963752       11.3546374552
  C         3.4456448072        2.3087380120       13.9313206827
  C         4.0878818226        2.9700526324       10.0726567295
  H         2.6723497709        3.5019754429       11.5357074151
  H         2.5894425674        1.8477362249       11.1293288211
  H         3.8322944394        1.5867438181       14.5992461732
  H         2.3353540981        2.2151674150       13.8119566248
  H         3.5891078464        3.3109710224       14.3888458021
  C         4.7232923175        1.6104060245        9.6528903131
  H         3.3762308836        3.1616245321        9.2717141958
  H         4.7861918317        3.8552272971       10.1774635885
  C         5.3903320695        1.6760114746        8.2455204067
  H         3.9164305646        0.9270639724        9.5548478047
  H         5.5145115242        1.3595712901       10.3061554914
  C         6.6228150236        2.5572990926        8.1706961700
  H         4.6991229993        1.8250659411        7.4707467505
  H         5.7698016741        0.6724363241        8.0365765234
  C         7.8865266083        1.9550466272        8.8578991295
  H         6.7964669342        2.8185913430        7.1818498239
  H         6.4196522987        3.5238730045        8.6681234400
  C         9.0940228610        2.8868422070        8.8955230223
  H         8.0928591115        1.0515826009        8.3364555656
  H         7.5549022298        1.6839647796        9.8176191024
  C         8.8848066104        4.2716388015        9.5522470543
  C         9.4967873113        3.5430393781        7.5947965867
  C        10.2394879825        2.1826748449        9.7194364369
  C         9.0552470746        5.3499278418        8.7168144753
  C         8.3555783789        4.6731420891       10.7389698166
  C         9.4926970781        4.8587115982        7.4842318216
  C        10.1089935079        2.8451623517        6.5348185782
  H         9.8471909806        1.8580466164       10.7152779722
  H        10.4145193518        1.1925948922        9.1792821390
  C        11.5604883870        3.0157461740        9.8787574800
  S         8.9572036707        6.9031677728        9.5741281712
  C         8.3220607729        6.0298114893       10.9311605144
  H         8.0212200233        3.8857935987       11.3601949429
  C         9.9985259428        5.4999178595        6.3717629677
  H        10.1797184958        1.7532958036        6.5632455700
  C        10.4175392500        3.4369009080        5.3546941583
  H        11.3336701802        3.9870530091       10.1951018754
  H        12.2348669247        2.9480717927        9.0468825448
  C        12.4398494990        2.3575345460       10.9458004069
  C         7.8438961499        6.6916508593       12.1934881384
  C        10.3871777746        4.7703429616        5.2592742615
  H        10.0654591466        6.5422457199        6.3301981903
  C        10.8470044885        3.0631940118        4.0954462074
  H        13.2487284466        3.0849242335       11.0068396511
  H        12.8568083720        1.4405200515       10.6637737781
  C        11.7333261091        2.3818531420       12.3012258795
  C         7.9320431203        8.0578894101       12.5991665396
  C         7.2478480119        5.7996197437       13.2598533410
  C        10.8122898568        5.4080672024        3.9769655831
  C        11.0297981252        4.0977113032        3.2535507413
  S        10.9227052171        1.4856889964        3.3556886214
  H        11.3298190749        3.3620025941       12.3324630802
  H        10.9731141475        1.5536727885       12.4197591803
  C        12.7465006950        2.1546186412       13.4282887209
  N         8.3015886866        9.0289007209       11.6426782620
  C         7.5331960849        8.5756352726       13.8034241553
  C         6.9132486355        6.3437818512       14.4780519333
  H         7.0212266940        4.7292045868       13.1480499835
  C        12.1139060132        6.2011010681        4.2463538619
  C         9.6988069898        6.3359177600        3.2809756246
  C        11.2107596352        3.6220709226        1.9719658801
  C        11.2801172786        2.3053388696        1.8918791316
  H        13.5473612494        2.8185769271       13.2303358120
  H        13.1851376350        1.0957692190       13.2500817485
  C        12.0818997746        2.2165457918       14.8379146797
  S         8.2946133162       10.4622159683       12.4299480255
  N         7.6757721570        9.9418651074       13.8330897292
  C         7.1622569133        7.7539500049       14.8086303877
  H         6.4140023579        5.7135124236       15.2399942017
  H        11.8865325194        7.0955197804        4.8561532750
  H        12.4846523260        6.5327600465        3.2218912305
  C        13.1872423710        5.3841378601        5.0066526149
  H         9.8357147023        7.3461391697        3.6523816042
  H         9.9990882484        6.4745278438        2.2652267039
  C         8.2938178705        5.8187973841        3.3991913669
  H        11.3197215793        4.3513480041        1.1528713296
  C        11.5447681930        1.5528353223        0.5656196531
  H        11.7073056881        3.2470383240       15.0623849982
  H        11.2980276747        1.4700756083       14.7265141229
  C        13.1639505933        1.8532548107       15.8931865706
  C         6.8015675674        8.4049334933       16.0625521426
  H        12.7476895591        5.2237273200        6.0128629708
  H        13.4788137812        4.5335851834        4.4720969039
  C        14.4548272728        6.1417099117        5.2585813068
  H         7.9814002758        5.9881321407        4.4150813120
  H         8.3469017558        4.7394890149        3.2420372700
  C         7.4029527115        6.5860901709        2.4456030982
  C        11.4858917149        0.1646869334        0.3858761088
  C        11.8133780201        2.2160299681       -0.6834690835
  H        14.0957659027        2.3352389841       15.6092186334
  H        13.3081119906        0.8085786850       15.8100761540
  C        12.7656405869        2.1921787576       17.2867008111
  H         6.8669559844        9.4912704481       16.1329012670
  C         6.4029427278        7.9267237816       17.3170223491
  H        14.2289910488        6.9249140813        5.9969099346
  H        14.9095474651        6.5241432751        4.3333458451
  C        15.4884530426        5.1375535569        5.7383853722
  H         7.3052404192        7.5981017713        2.7886361499
  H         7.7840378931        6.6052795848        1.4743223872
  C         6.0214348398        5.9880531155        2.1894529109
  N        11.1133339325       -0.8011566666        1.4086633861
  C        11.7821654615       -0.4722812490       -0.8144456999
  C        12.1701089780        1.6379835975       -1.8894981659
  H        11.9166820534        3.2855749008       -0.5853609031
  H        12.7937965095        3.2617091397       17.5009897583
  H        13.5638975570        1.8480309040       18.0191685865
  H        11.7760600885        1.6791429466       17.5710424747
  S         5.9970650293        6.3088699172       17.7214807028
  C         6.4725698270        8.8681689466       18.4725849087
  H        15.0552743901        4.3587278412        6.3398679689
  H        15.8249799944        4.5967487879        4.8315771662
  C        16.6343906207        5.8002199717        6.4611131167
  H         5.5137723073        5.7528990485        3.1533677429
  H         6.0918643364        5.1261107299        1.5043034133
  C         5.1116570328        6.9379419403        1.4105490657
  S        11.3279056879       -2.2926400960        0.8346050115
  N        11.6719666396       -1.8711123507       -0.6935650722
  C        12.2114674637        0.1615908744       -1.9669534011
  H        12.4685427445        2.2998976841       -2.6744564945
  C         5.8857431256        6.8705819469       19.4150793458
  N         6.0665440623        8.1900211707       19.5565320552
  O         6.7547418447       10.0857004018       18.4016628435
  H        16.8407900120        6.7214101458        5.8849633579
  H        16.2738040368        5.9858845044        7.4421574853
  C        17.8766834707        5.0012858354        6.6928037662
  H         5.7278354355        7.1811951670        0.4858791803
  H         4.2159947703        6.3502785475        1.1125874109
  C         4.6207988824        8.1016979208        2.2820189409
  C        12.4240225894       -0.5854657975       -3.1405879898
  S         5.5063177667        5.8767889929       20.7706741035
  C         6.0522259885        8.8780781913       20.8483970789
  H        17.6552611855        4.3095510920        7.5408646550
  H        18.0399422766        4.3214149986        5.9357966061
  C        19.1346735575        5.8687497858        6.9648168543
  H         5.4763381327        8.7251714143        2.2146674892
  H         4.3234186894        7.8009386534        3.2461875878
  C         3.4931261520        8.9263805770        1.6840725242
  H        12.1818693033       -1.6387493616       -3.1017419273
  C        12.9453944477       -0.1697444422       -4.3556702025
  H         5.4814167544        8.3873810204       21.5658669962
  H         5.5391198244        9.8506694979       20.7684540197
  C         7.5036465238        9.0766718725       21.3814094518
  H        19.8979886558        5.3566183538        7.4920826143
  H        18.8701817972        6.7691217387        7.6472589691
  C        19.7702476585        6.3280309148        5.6350777664
  H         2.7505535045        8.1901335132        1.5119615878
  H         3.0229446214        9.6071702050        2.4081173175
  C         3.7690896415        9.7577935190        0.4129840265
  S        13.4087780632        1.3815095555       -4.7900057169
  C        13.1180807118       -1.2478706171       -5.3595213902
  H         8.2063175204        9.1503111790       20.4768727085
  H         7.8756684944        8.3759474169       22.0339204698
  H         7.7689984123       10.0445494549       21.8412060688
  H        20.7032943118        6.7277906792        5.9324749575
  H        20.0187285098        5.4763120285        4.9752032582
  H        19.3203304107        7.1354830947        5.1033552682
  H         2.8502420688        9.8591928017       -0.0896813265
  H         4.0958791572       10.7652097567        0.6606924838
  H         4.3921583061        9.2167629221       -0.2693535211
  C        13.8797386070        0.6771043605       -6.3475703161
  N        13.6195218566       -0.6942053124       -6.4623230831
  O        12.7015638777       -2.3885168219       -5.2264493547
  S        14.4978710609        1.5418051166       -7.7249397807
  C        13.6102544484       -1.5329690641       -7.6759981733
  H        13.7523828398       -2.5838835428       -7.4627050786
  H        14.2983833486       -1.0603022152       -8.3978970683
  C        12.1898973978       -1.4362148827       -8.3025992622
  H        11.4621941176       -2.0247316786       -7.8016948805
  H        12.2640393071       -1.7772085062       -9.2901836499
  H        11.8636011148       -0.4173054421       -8.3451942119
  H        -3.4456409159       13.3022075498       16.1569476047
  C        -2.6597638924       13.8323241680       16.7024871308
  H        -1.9131759713       13.1655330659       17.2069439499
  C        -3.2910685894       14.7457182295       17.7487439931
  C        -1.8756142387       14.5443617492       15.6537702270
  C        -3.6677910263       13.8707387236       18.9843836645
  H        -2.5954035877       15.5271045047       18.0882493066
  H        -4.1801210042       15.2768760580       17.3414676451
  H        -1.0897298894       15.1716517030       15.9894843925
  H        -1.3473255585       13.8838825394       14.9684003739
  H        -2.4901138503       15.1730940322       15.0485142890
  C        -2.4475190925       13.4070034781       19.7913682658
  H        -4.3328947861       13.0788458076       18.5399711507
  H        -4.3809279358       14.3685043903       19.6297305540
  C        -2.6151522079       13.5788322376       21.2561199236
  H        -2.2220832262       12.2968314732       19.6829331610
  H        -1.5305130570       13.8604048705       19.4778101856
  C        -1.5523291418       12.9018568818       22.0836109752
  H        -3.5897420210       13.1768290836       21.5606336392
  H        -2.7144019332       14.6390281019       21.5866892502
  C        -0.3515808619       13.7274239800       22.4323223027
  H        -1.8875729789       12.5926240279       23.0853675289
  H        -1.2808359171       11.9879154791       21.5833549281
  C         0.7602338293       13.0695299279       23.2139044105
  H         0.0186068576       14.0561598230       21.4393265584
  H        -0.7231075609       14.4815224569       22.9745464327
  C         1.1999957288       11.7261760670       22.4476707406
  C         0.2768849319       12.3308524629       24.3516664917
  C         2.0004894084       13.9969637606       23.4771490774
  C         0.9471078242       10.5902660386       23.2183965700
  C         1.8095190822       11.3826501912       21.2359784753
  C         0.3990860283       10.9867977360       24.4590170069
  C        -0.3835837651       12.8536666433       25.4525403461
  H         2.3259426272       14.4641465102       22.4581310629
  H         1.5264490821       14.7954880517       24.0614849901
  C         3.1822541676       13.3517199200       24.1358626380
  S         1.4613775201        9.0979047739       22.4957647746
  C         2.0152451435       10.0544843990       21.1434442286
  H         2.0114261072       12.1795174370       20.5210810074
  C         0.0548113939       10.3335751359       25.6105235141
  H        -0.4302298655       13.9708681075       25.3882236152
  C        -0.6411727539       12.2397454890       26.6402088272
  H         3.5591424352       12.6326654679       23.4948958976
  H         2.7994127803       12.7494209384       24.9728327240
  C         4.3957412772       14.1688876276       24.5380847400
  C         2.6133470685        9.4710165177       19.9184746834
  C        -0.5154966235       10.9249687089       26.7537984572
  H         0.0142739586        9.2961746938       25.6184721795
  C        -0.9542565849       12.6682431444       27.9006000463
  H         5.1873642902       13.6605938205       25.1093977750
  H         4.1700224497       15.0286349633       25.1457771746
  C         5.1377867877       14.6957308488       23.3294250917
  C         2.5006539822        8.0949836549       19.5824771098
  C         3.1567931007       10.3645033286       18.8601142526
  C        -0.8188692690       10.2988302128       28.0671058497
  C        -1.0372003730       11.6487493702       28.7668958021
  S        -1.3448568117       14.2147490829       28.5977844547
  H         5.8085662568       15.5097897325       23.5534583534
  H         4.3270701378       15.1784319536       22.6886312566
  C         5.9066580380       13.6408389290       22.5722541381
  N         2.1156825362        7.1490265727       20.4657027134
  C         2.7419382318        7.6364763838       18.3339501916
  C         3.3174260031        9.8562788096       17.5890528359
  H         3.2610128037       11.3946708439       19.0110217559
  C         0.3760475837        9.5123135969       28.6705366887
  C        -2.1230492975        9.4829077612       27.9874577039
  C        -1.2717034078       12.0505760648       30.1270396001
  C        -1.5498546387       13.4297400567       30.1738664412
  H         6.9204048662       14.1499648612       22.3002619772
  H         6.1737716307       12.7820708563       23.2259067674
  C         5.2837670053       13.0245522209       21.2902548327
  S         2.1021661063        5.6969604880       19.7110738843
  N         2.4994781912        6.2772668149       18.2129424059
  C         3.0721107373        8.4834461774       17.2661393974
  H         3.4961394633       10.5704996648       16.7565539351
  H         0.6301407431        8.6465210557       27.9959650931
  H         0.1551315344        8.9452450268       29.6012371051
  C         1.6149153886       10.2785786211       29.0860841919
  H        -1.9509933787        8.7459839218       27.1290430463
  H        -2.3299454286        8.9957814002       28.8944646081
  C        -3.4323016685       10.2754459562       27.7899052891
  H        -1.1695538032       11.2386455618       30.8802607101
  C        -1.8825292783       14.2726320965       31.4243855968
  H         4.1847766974       13.2003670646       21.3424765118
  H         5.5061933971       11.9790040872       21.1416581693
  C         5.6981648492       13.8717009182       20.1435310502
  C         3.2305564699        7.8655295022       15.9609336193
  H         2.1070533180       10.7641073871       28.2566385859
  H         1.3838991587       11.1039582329       29.8226553228
  C         2.6646475636        9.3231205926       29.6614293665
  H        -3.2414165294       10.9303666913       26.9363067643
  H        -3.7327639289       10.9318600685       28.6506932191
  C        -4.5788473545        9.4293213560       27.5739495331
  C        -1.8109315143       15.6619167992       31.6189512795
  C        -2.1923856378       13.4961459414       32.6582610667
  H         4.8754664602       13.9158919829       19.4176132856
  H         5.8369991824       14.9132544830       20.5391860393
  C         6.9687766258       13.5210232191       19.3307284132
  H         2.9367456474        6.8044184424       15.9706097059
  C         3.6790703207        8.3444292450       14.7264236230
  H         2.8038238921        8.4740247389       29.0109828279
  H         2.1888980992        8.8518480332       30.4609109966
  C         4.0227821477        9.9098253630       30.0874539669
  H        -4.3762342441        8.7679607029       26.7411150592
  H        -4.8806606189        8.8239323549       28.3997793377
  C        -5.8291425856       10.2427023763       27.2236478189
  N        -1.4503717732       16.5608107981       30.6420056391
  C        -2.0850160306       16.2415873341       32.8183810334
  C        -2.4523134203       14.0667884644       33.9043570848
  H        -2.1236588839       12.3749362721       32.5477688197
  H         7.2982121558       14.4685473542       18.9378896577
  H         7.6522006771       13.1245486152       20.0649807599
  H         6.7869572033       12.8265098817       18.4866473191
  S         4.1681047741        9.9853384258       14.3244551974
  C         3.8234802694        7.2774164944       13.6807635967
  H         4.3404335078       10.6695292539       29.3471836765
  H         4.0239452662       10.3017663346       31.0881040510
  C         5.1720644049        8.8768168775       30.1726556140
  H        -5.8635779159       11.2270893336       27.7344017709
  H        -6.6280105231        9.6655060098       27.6213551213
  C        -5.9611032475       10.4766181538       25.7438675016
  S        -1.4334041089       18.0406845721       31.1995152022
  N        -1.9306327678       17.6730149273       32.7554585585
  C        -2.4306064747       15.5256470505       34.0167187896
  H        -2.5984913013       13.5049654610       34.8309409636
  C         4.3683351868        9.2932547678       12.7001849151
  N         4.2778671313        7.9189055012       12.5771594458
  O         3.6826471313        6.0856288251       13.8813599925
  H         6.0759709310        9.5466394678       30.1822149231
  H         5.1267525441        8.1631013320       29.3920200183
  C         5.2076910614        8.1017870900       31.5070977180
  H        -5.2112872942       11.1829355726       25.3624119600
  H        -5.6679379400        9.5607056986       25.2542091930
  C        -7.3400188571       10.9590844378       25.2654122618
  C        -2.7499608048       16.3579484725       35.1402001604
  S         4.9394792870       10.2282267659       11.3418844929
  C         4.3023578322        7.1398784291       11.3336099759
  H         5.7578341197        8.7079262994       32.1701515588
  H         4.2531453748        8.0170826588       31.8932619971
  C         5.8557536113        6.7024494948       31.3067790093
  H        -7.1760987570       11.3476076960       24.2967323441
  H        -7.6548450424       11.8112007584       25.7471862168
  C        -8.4349354293        9.9829669247       25.0649347009
  H        -2.5326413822       17.4118089836       34.9978764962
  C        -3.0905568858       16.0315959559       36.4140194939
  H         5.2029890612        7.3572444228       10.7780806381
  H         4.3735296831        6.0537617057       11.4172276815
  C         2.9720355845        7.3618814648       10.5240900437
  H         5.3627131302        6.2623478315       30.3911177832
  H         5.5190755414        6.0014790558       32.1106113127
  C         7.3842073404        6.7550444321       31.2431567993
  H        -8.8779462806       10.1055864024       24.1163867395
  H        -7.9820283406        9.0280036564       25.0541830598
  C        -9.4018252710       10.1364164005       26.2128445170
  S        -3.4411538533       14.4644879067       36.9633586796
  C        -3.2342423829       17.0642942939       37.4568815597
  H         2.2075414247        6.7100165800       10.9836219127
  H         2.6407706034        8.3035739755       10.6432604728
  H         3.1549007978        7.2171193757        9.4965016448
  H         7.6210545272        6.9229839135       32.2957613160
  H         7.7958107126        7.4879339645       30.5260112948
  H         7.7460122860        5.7761917431       31.0088649921
  H        -9.2973362586        9.4224524268       27.0134745775
  H       -10.4407167045       10.0560833761       25.9753812675
  H        -9.3655949287       11.0983436912       26.7458111492
  C        -3.8157940293       15.1997969050       38.5507291317
  N        -3.7030299128       16.5655072709       38.5951059620
  O        -2.9470372209       18.2763697290       37.3287460125
  S        -4.4821674993       14.2833409282       39.8569304378
  C        -3.8751321945       17.2857797140       39.8304170175
  H        -4.2905315001       18.2667762042       39.5921533463
  H        -4.6201355314       16.8212630640       40.5712662595
  C        -2.6340606664       17.4168309347       40.5976693138
  H        -1.8433615246       16.7410386720       40.2317182998
  H        -2.1835486994       18.4162786388       40.5021562828
  H        -2.7011756229       16.9603972689       41.6315663816
