352
i=
  H         2.6730680987        1.9155871536       13.6073725313
  C         3.4420492115        1.6683748073       12.8869658422
  H         3.5585468955        0.5774831700       13.0026500856
  C         2.8759300005        2.3137122701       11.5796534453
  C         4.7741982478        2.2637807475       13.4025668162
  C         3.9659822765        2.4830919847       10.4429405407
  H         2.6335542465        3.3688726277       11.7918135557
  H         2.0259103278        1.7485381495       11.2306044157
  H         4.8529385998        2.0221623533       14.4409606092
  H         4.7526029068        3.3157045950       13.2704951507
  H         5.5945338899        1.7636108913       13.0065776830
  C         4.4089323038        1.1090510604        9.9716693942
  H         3.4610313180        3.1295193900        9.6284531696
  H         4.7332967473        2.9947660168       10.9211079647
  C         5.1873703200        1.1122480198        8.6566068781
  H         3.5277394314        0.4385487738        9.9359230597
  H         5.0907318000        0.6553029344       10.6281213658
  C         6.4818128801        1.9302715787        8.7447914403
  H         4.5295139200        1.5972265441        7.9475377905
  H         5.4096725531        0.1098088764        8.2789302804
  C         7.6803162811        1.1245378637        9.2952130827
  H         6.6407746832        2.3455884866        7.7174121360
  H         6.2796477720        2.7791926570        9.3101255627
  C         8.8587392812        2.1663631874        9.5146214702
  H         7.9976367966        0.4367259073        8.5036246041
  H         7.4853470227        0.6380000642       10.2736046813
  C         8.5816241037        3.5084027177       10.2296779566
  C         9.3132156942        2.8717329535        8.2527818380
  C        10.0304659420        1.4543244844       10.3264151991
  C         8.8409162326        4.6295473799        9.4354264161
  C         8.1245028397        3.8569657422       11.4771318441
  C         9.3067638661        4.2723771061        8.1713723360
  C         9.7549582555        2.2910634776        7.0594339000
  H         9.5352664196        1.0992864628       11.2249603447
  H        10.2913624594        0.6414235151        9.6987445433
  C        11.1217075540        2.3322854104       10.7250622607
  S         8.4710469560        6.0988546892       10.2780157025
  C         7.9410663338        5.1785015101       11.6315261083
  H         7.7602893844        3.0601977944       12.1573850150
  C         9.6612850498        4.8762557977        7.0262091293
  H         9.9327260075        1.1925147048        7.0128374533
  C        10.0781890099        2.9706928612        5.8923374118
  H        10.8085337584        3.1377301605       11.4189544465
  H        11.5210134873        2.9051174376        9.8952057725
  C        12.2276631008        1.6130867756       11.4807169136
  C         7.5424684556        5.8709390117       12.8971658445
  C        10.0421074741        4.3195286433        5.8371169112
  H         9.6123835459        5.9653125512        7.1070371310
  C        10.6098882251        2.6350035906        4.6605042455
  H        13.1173414287        1.6728362721       10.8286322388
  H        11.8930289833        0.5650447594       11.6996871226
  C        12.4431191061        2.2038433517       12.9743352306
  C         7.4221663595        7.2914524351       13.1209306094
  C         7.3179917566        5.0824562648       14.1043169760
  C        10.5702948563        5.0154756930        4.6547466901
  C        10.8696725956        3.7466138340        3.8811984942
  S        10.9115814413        1.2072928850        3.8864441141
  H        12.5416973133        3.2954016131       12.8918722066
  H        11.4752702170        2.0605271102       13.4739718234
  C        13.5937875684        1.6087998362       13.7378358496
  N         7.5611244956        8.2973588563       12.1054639694
  C         7.1147762333        7.8883183917       14.3360046207
  C         6.9009907503        5.7157120935       15.2835496541
  H         7.4981407381        4.0099737894       14.0674248439
  C        11.8579249414        5.8524176776        4.9349975347
  C         9.6693031006        5.8863016774        3.8185852462
  C        11.2218176444        3.4067041040        2.5278891752
  C        11.3218270051        2.0835744471        2.4765179195
  H        14.2992362480        2.3414870887       13.9579416287
  H        14.0658234938        0.7927169975       13.2887447688
  C        13.1772528284        0.9525299017       15.0725289192
  S         7.6154646244        9.7474690862       12.8134746908
  N         7.1646204360        9.2841884773       14.2601939441
  C         6.7901472890        7.1557060647       15.4723296979
  H         6.5372271438        5.1288508888       16.1014596602
  H        11.5768885474        6.5997457908        5.7126211954
  H        12.1416884021        6.3360371789        4.0323093639
  C        13.0072134433        4.9439235451        5.3356088299
  H         9.4122559494        6.8375871651        4.3898425428
  H        10.1466986312        6.2378582150        2.9416452202
  C         8.3205823767        5.3037354399        3.4217755101
  H        11.3456644172        4.1963178213        1.8230059925
  C        11.6475798841        1.4172338088        1.0959323317
  H        12.5227481600        0.1173659267       14.8638902963
  H        14.0021598331        0.4688710116       15.6067474663
  C        12.6996117304        2.0940962685       16.1100985982
  C         6.5222247604        7.8114488815       16.7108272393
  H        12.6973242013        4.1591753010        6.0719922651
  H        13.4474533089        4.4719627539        4.4926143941
  C        14.1219802486        5.8147988372        5.9958652460
  H         7.8210503778        4.9898092246        4.3262456667
  H         8.3246412724        4.4173462571        2.8576200773
  C         7.3921340216        6.2609155038        2.6413801623
  C        11.8338364022       -0.0056741471        0.9259841955
  C        11.6993594774        2.1920253642       -0.1767398238
  H        12.0643222339        2.7905843415       15.5990712997
  H        13.5215212653        2.7066726652       16.3680900510
  C        11.9983279527        1.6075770940       17.3603736122
  H         6.8454913847        8.8473145749       16.7987768112
  C         6.1361916720        7.3386531578       17.9711558609
  H        13.7968731875        6.3901339489        6.8514783638
  H        14.5335973905        6.6004009426        5.3124226701
  C        15.4132502949        4.9561392968        6.4031699333
  H         7.8483187950        7.2520905591        2.6833100275
  H         7.5350365017        6.0296470530        1.5822546216
  C         5.9584789396        6.3079849121        3.1043958421
  N        11.7258038491       -0.9080466097        2.0270586416
  C        12.0704160430       -0.6574254759       -0.2533470727
  C        12.0173571790        1.5834229072       -1.3480504431
  H        11.6567636803        3.2429219556       -0.2055145151
  H        12.2354201565        2.2355407086       18.1078879493
  H        12.3463172688        0.6035244880       17.5732316559
  H        10.8945593244        1.5200996922       17.2163245728
  S         5.6887622318        5.7229887277       18.4788251934
  C         6.0507368061        8.3649381692       19.0525705226
  H        15.0068615109        4.2653329645        7.0940573774
  H        15.7822484357        4.4467408341        5.4625915807
  C        16.5150423198        5.7675826087        7.1077342932
  H         5.9267881122        6.9605022125        3.9045374153
  H         5.5557526354        5.3483952769        3.4254610053
  C         5.0869922708        6.9014238151        1.9746763785
  S        11.8492794280       -2.4438468438        1.4433570801
  N        12.2126412613       -2.0345997847       -0.0974455546
  C        12.1801974631        0.1063894794       -1.4669864724
  H        12.0578100650        2.1251922711       -2.2329324028
  C         5.7668379280        6.3877132676       20.1661568814
  N         5.7406971880        7.7743186343       20.1871609420
  O         6.2888515188        9.5796256436       18.8583845818
  H        17.0281442601        6.3543026165        6.3293507434
  H        16.1303186427        6.3839001839        7.9509957783
  C        17.6484270577        4.8724411537        7.6418151064
  H         5.6588269896        7.7948692153        1.5414399249
  H         4.8577273991        6.1836902626        1.1488563200
  C         3.7886311931        7.4439094499        2.5385826685
  C        12.4244404300       -0.6452944662       -2.6776285897
  S         5.2447255047        5.6302350245       21.6687666645
  C         5.7344726405        8.6787906974       21.4196231888
  H        17.2969074231        4.4746825289        8.5495443891
  H        17.6234160291        3.9706089638        6.9721974644
  C        18.9718194106        5.5840910221        7.8712903948
  H         3.5581474493        6.7350915817        3.2905621444
  H         2.9856943078        7.4076638463        1.8236799422
  C         3.8104905592        8.8640311681        3.1289519712
  H        12.1850712251       -1.6833000498       -2.5293072408
  C        12.9341812523       -0.2833989612       -3.8342188237
  H         5.1215864625        8.4587442261       22.2526634555
  H         5.3646788723        9.6701266949       21.1021613586
  C         7.1824349954        8.7633655139       21.9646384388
  H        19.5114888102        5.1281686228        8.6898136795
  H        18.8427459477        6.5718853288        8.2667802887
  C        19.7806668853        5.7539887429        6.5652577590
  H         3.3838410183        9.0761985414        4.0443226796
  H         4.8412477254        9.1109713406        3.3884948115
  C         3.3177224975        9.9596666962        2.1389822183
  S        13.2863057698        1.2801201233       -4.4648196806
  C        13.2605041470       -1.3872761375       -4.8036026777
  H         7.1935129592        9.5337931810       22.7134649129
  H         7.8550791290        8.9834855466       21.1547990588
  H         7.5465775372        7.8109972915       22.4320431730
  H        20.4183167371        4.8704964027        6.4993638888
  H        19.2812082525        5.8181898492        5.6118980672
  H        20.4136609520        6.7045096614        6.6452152983
  H         3.6438195323        9.8242041860        1.1142256610
  H         2.2642448479        9.8678421738        2.1479804346
  H         3.5967095069       11.0212282550        2.4631277039
  C        13.8577260736        0.4746711802       -5.9113185794
  N        13.7266975379       -0.8562652614       -5.9196701336
  O        13.0509938899       -2.5743543626       -4.5432887535
  S        14.6312297767        1.2809129316       -7.2373966533
  C        13.8411356966       -1.7410741864       -7.0106460264
  H        13.9183087928       -2.7684055806       -6.7114025175
  H        14.7385715576       -1.4941403378       -7.6324752977
  C        12.6529511867       -1.6406289851       -7.8701957308
  H        11.7038284526       -1.3349508598       -7.3526184956
  H        12.4449549192       -2.6645585416       -8.2131157460
  H        12.9165050530       -1.0956833039       -8.7891516442
  H        -4.2747778766       12.6004476813       16.4186575384
  C        -3.1818953456       12.7899899382       16.4716223048
  H        -2.7031612464       11.8048889001       16.6460170652
  C        -2.6652110843       13.7190538275       17.6660709093
  C        -2.7259826574       13.1273805045       15.0496340990
  C        -3.0906945213       13.1664722200       19.0168374271
  H        -1.5633794538       13.7611383360       17.5635896241
  H        -3.0899733200       14.7274433999       17.5047315236
  H        -2.6674536297       12.1968523133       14.4082917508
  H        -3.1833731259       14.0018362718       14.5271121177
  H        -1.7222513894       13.4778207666       15.0872787531
  C        -1.9222238286       13.0060342288       20.0139598630
  H        -3.5992213648       12.2110309417       18.9111081337
  H        -3.7398929377       13.8843550136       19.4429860998
  C        -2.3553930765       12.7845703150       21.5432357517
  H        -1.3425878766       12.1303491392       19.7134719792
  H        -1.3764064803       13.9418798460       19.8176779753
  C        -1.2845147904       12.1869797040       22.4407184204
  H        -3.1623063744       12.0748246898       21.4035493657
  H        -2.6445207150       13.6951862417       22.0072563172
  C        -0.2714257374       13.2161498239       23.0037455046
  H        -1.8045064069       11.7965180233       23.2835825443
  H        -0.7889935512       11.4155832726       21.8628536770
  C         1.0614260237       12.6563452835       23.6875882818
  H         0.2324639454       13.8135267978       22.2434760013
  H        -0.8321222913       13.9601458179       23.6306620882
  C         1.4803616109       11.3271572995       23.0810302222
  C         0.7055659483       11.9263920472       25.0367758019
  C         2.2027002104       13.7089086297       23.7328297838
  C         1.4503730678       10.2131282820       23.9100080253
  C         2.0483610363       10.9762405052       21.8192766270
  C         0.9420978394       10.5840214534       25.0841747459
  C         0.2707752715       12.4946370762       26.2288364472
  H         2.3503098696       14.3919021535       22.8320683808
  H         2.0016253464       14.4675260685       24.4872008349
  C         3.5063239222       12.9888023191       24.0936091370
  S         1.8560494900        8.6632379858       23.1632910325
  C         2.1875041588        9.5984269495       21.6764915515
  H         2.2042714072       11.7553761631       21.0968472119
  C         0.5541113592        9.9680558185       26.3430445603
  H         0.1038909926       13.5395154609       26.0376781203
  C        -0.1237769910       11.9373251976       27.3597025320
  H         3.9768589714       12.4527295097       23.3124762595
  H         3.2865554355       12.2073516683       24.8321603856
  C         4.5261895335       13.9563420293       24.6642492310
  C         2.5179536609        8.9535668442       20.3928988663
  C         0.0380015180       10.6325525644       27.4963471063
  H         0.7676713609        8.8857118894       26.4182519234
  C        -0.5873973231       12.3852406258       28.5623201951
  H         5.2767110264       13.4615527030       25.2406249776
  H         3.9885584943       14.5847627371       25.3262436225
  C         5.1953174513       14.7688249857       23.5371955846
  C         2.3954752159        7.5445406346       20.1683793892
  C         2.8762847948        9.7467890884       19.2173013567
  C        -0.3225472505        9.9835622063       28.7789305586
  C        -0.6912944258       11.3411227266       29.4293498597
  S        -0.9032670694       13.8940756325       29.2846703493
  H         5.8053848633       15.5850942673       23.8822108809
  H         4.3479113366       15.1014282012       22.9769667444
  C         6.0731355320       13.9056226799       22.5395729538
  N         2.0018979336        6.5620267895       21.0584960684
  C         2.6023016981        7.0247484621       18.8650613945
  C         3.0520069617        9.2514994322       17.9244615785
  H         2.9014271369       10.8369532487       19.3757563867
  C         0.8573248575        9.2914102250       29.4844523964
  C        -1.5479788258        8.9593485547       28.5460532922
  C        -1.0269435599       11.8078092100       30.7393841365
  C        -1.2355346086       13.1696498156       30.7944482463
  H         6.9402322059       14.5043003560       22.3501280679
  H         6.4265399361       12.9751952464       22.9204766582
  C         5.4888574914       13.8140272513       21.0913083573
  S         2.0560046131        5.1432421425       20.3033766263
  N         2.4977301055        5.6411099781       18.8486796433
  C         2.8278450267        7.7944549496       17.6922529235
  H         3.4707735011        9.8433257640       17.1793015931
  H         1.2649459718        8.5175535509       28.9269795163
  H         0.6540358742        8.8716482003       30.4483440831
  C         1.9862751955       10.2993010116       29.7339315353
  H        -1.2446823999        7.9883801412       28.1336708790
  H        -2.0961791950        8.7041934156       29.4466565680
  C        -2.6669867815        9.5433832797       27.7053811923
  H        -1.1234229444       11.0843469989       31.4886576652
  C        -1.5449609250       13.9517359881       32.0217557218
  H         5.3431560583       14.8374864122       20.6581892837
  H         4.5493865815       13.1672280215       21.0598978653
  C         6.4407933388       13.1310051643       20.2064995079
  C         3.0370152832        7.1337622266       16.5055275673
  H         2.1238551198       11.0004091941       28.9441358772
  H         1.7275749657       10.9272631986       30.6116230144
  C         3.1199604866        9.4399159691       30.2374453899
  H        -2.3592953185        9.9172481619       26.7269636729
  H        -2.8940371087       10.5114411512       28.2661778739
  C        -4.0054126380        8.8007184279       27.5723530227
  C        -1.5989936257       15.3715678944       32.0226025187
  C        -1.6559543056       13.2692821088       33.3494020720
  H         7.4485200417       13.5630111499       20.1969761614
  H         6.6583097595       12.2118876100       20.7021450238
  C         5.8969674370       12.6462228273       18.8214805286
  H         2.9430462690        6.0899442085       16.5797542558
  C         3.4452609556        7.5530698446       15.2371440374
  H         3.5985740822        8.9580225654       29.4594913765
  H         2.6781557122        8.8712488879       31.0595609710
  C         4.2898857457       10.2009050330       30.8920135318
  H        -3.8871797766        8.0782269515       26.8459317473
  H        -4.2768126518        8.2826611521       28.4984934060
  C        -5.1136848081        9.8247158620       27.1999629303
  N        -1.3827752506       16.2429766389       31.0187797883
  C        -1.8722814337       16.0837451805       33.1967694670
  C        -1.7898560970       14.0640414597       34.4713064833
  H        -1.5469645431       12.2008691338       33.3819134679
  H         5.7967892881       13.6705908426       18.2705275173
  H         6.6987008590       11.9816707489       18.4268691902
  H         4.9808308749       12.1313647009       18.8003910822
  S         3.9546404399        9.1496893845       14.7767344684
  C         3.5469681040        6.5422693264       14.1566882665
  H         4.4242527912       11.0603547616       30.3014468373
  H         3.9836127001       10.4898795067       31.8765157897
  C         5.5213935391        9.3347211865       30.8502542492
  H        -4.5971748457       10.6012580718       26.7094327075
  H        -5.5320126001       10.1113798635       28.1361315425
  C        -6.1962616565        9.2195815618       26.3154062284
  S        -1.7659473855       17.7434711682       31.4595628166
  N        -2.1412850924       17.4703787633       33.0011912943
  C        -2.1557763819       15.4987344780       34.4114333869
  H        -1.8263689230       13.5491590373       35.4356633767
  C         4.1847273831        8.4238364024       13.1497771750
  N         4.0747265555        7.1265764259       12.9986443313
  O         3.4232398134        5.3251757344       14.3180678615
  H         6.3636973968        9.9915979007       30.9974385359
  H         5.7505789002        9.0058046679       29.8956735975
  C         5.6188435202        8.1475405248       31.8299128043
  H        -5.7429361151        8.4436642291       25.7766212342
  H        -6.9781488319        8.8335317272       26.9593726237
  C        -6.7140961321       10.3003645232       25.4560727976
  C        -2.5628570842       16.3241077809       35.5378140595
  S         4.5392470171        9.4381944363       11.7105598583
  C         4.1412102855        6.4156649362       11.7547371110
  H         6.5597252702        8.3702688408       32.2929283461
  H         4.8754028894        8.1689048822       32.6647543983
  C         5.5823712429        6.6347294145       31.2572001324
  H        -5.9775482598       10.2941074680       24.6811588668
  H        -6.8035606019       11.3108353594       25.9271990338
  C        -8.0533446082        9.8606805786       24.9419780627
  H        -2.2690034692       17.3330405875       35.4613350218
  C        -2.9644406803       15.9931415708       36.8111024192
  H         4.9460773385        6.7474324078       11.0862593929
  H         4.3880712308        5.3903610471       11.9415089915
  C         2.7388272581        6.5292372872       11.0037175552
  H         6.5513056931        6.5324183273       30.6949173050
  H         4.8138902377        6.5463656064       30.4958743977
  C         5.6521654188        5.4528345801       32.2701507233
  H        -8.0980240861       10.4710305418       24.0882739643
  H        -8.1226505615        8.7609833746       24.6201570848
  C        -9.2368739932       10.1753259619       25.8124024099
  S        -3.3361158399       14.4023916480       37.4474991182
  C        -3.2230816503       17.1243960422       37.7153933544
  H         1.8656692081        6.3719586509       11.6749176542
  H         2.6549694446        7.4768651006       10.4999725583
  H         2.5673589566        5.7505726052       10.2364814149
  H         4.6343363748        5.1124044970       32.5769340749
  H         6.2966320591        5.7998796308       33.1222783507
  H         6.0562753369        4.5175515798       31.9397084444
  H        -9.0941343347       10.9999216359       26.4963457547
  H        -9.5646963318        9.3843336102       26.4769727788
  H       -10.0076531154       10.3408826691       25.1007816559
  C        -3.5788548209       15.2417607943       39.0278211081
  N        -3.5635981696       16.6267978455       38.9212431578
  O        -3.0310098465       18.3370082908       37.4374028919
  S        -4.5645274870       14.5593245322       40.3673949385
  C        -3.6514216730       17.5207145705       40.0756390529
  H        -3.7036299685       18.5843191961       39.8332017079
  H        -4.5630722036       17.2791373642       40.6471146588
  C        -2.3550033996       17.3979389143       40.8704018537
  H        -1.9841688630       18.2856365139       41.3965196307
  H        -2.4755421711       16.7235170494       41.6676979191
  H        -1.5997851720       17.0178023908       40.1768589904
