352
i=
  H         4.8624612014        2.2287401285       12.6345046975
  C         4.0927255678        2.9187984201       12.7076433053
  H         4.6926105037        3.7665854332       12.7598458762
  C         3.1721702116        2.9478543906       11.4553994958
  C         3.4353198038        2.6505269734       14.0566593187
  C         3.9150385734        2.9665641929       10.2174666973
  H         2.4841235755        3.8163412564       11.5063081219
  H         2.4922679597        2.1249174703       11.5985119031
  H         3.1483071634        1.5537176550       14.1316426598
  H         2.5510108148        3.2412314795       14.0552602427
  H         4.0024204709        3.0018117941       14.9116112353
  C         4.7054902883        1.6544415844        9.8633102493
  H         3.1924462083        3.2123956284        9.3935987346
  H         4.6162099202        3.8044969791       10.2573473973
  C         5.3669334315        1.6882569237        8.4998978057
  H         3.8870330818        0.8552362661        9.7369615786
  H         5.4541747355        1.4515419685       10.6665723182
  C         6.6969689980        2.4668127094        8.3728265625
  H         4.6782473282        2.1692900004        7.7675734030
  H         5.4869941535        0.7072776505        8.0519296126
  C         7.8713312156        1.8522749274        9.0675509331
  H         6.9699572121        2.4575689679        7.2706306491
  H         6.5064082392        3.4696899041        8.6649630325
  C         9.1504803622        2.7872837629        9.0066854342
  H         8.1118815568        0.9446466522        8.6593567382
  H         7.6073325875        1.6130079596       10.0451905649
  C         8.7848068554        4.1175188344        9.6293499545
  C         9.5699771193        3.4395771705        7.7507466712
  C        10.3111605424        2.1334397175        9.6678142146
  C         8.8592111859        5.1892086055        8.7752302249
  C         8.2554448042        4.4744280925       10.8686905429
  C         9.4795002720        4.7960422222        7.5649163813
  C        10.0510594571        2.7498301148        6.5845786893
  H         9.9254670801        1.9143571657       10.6769648530
  H        10.3075192232        1.1515425845        9.2465715784
  C        11.5700034873        2.9933819139        9.8072335650
  S         8.4883283382        6.7093717710        9.5243259830
  C         8.0562094496        5.8237197189       11.0019152028
  H         8.1392636387        3.7132297824       11.6462222636
  C         9.8177763466        5.4349935132        6.4067911757
  H        10.3250305408        1.7045579861        6.6382133415
  C        10.3609087642        3.3734137283        5.4142826476
  H        11.3266931511        4.0319512301       10.0565077588
  H        12.1442373322        3.0161354537        8.9062944233
  C        12.4370709662        2.6117700863       11.0198050396
  C         7.7088611963        6.4051205415       12.2953658741
  C        10.3248929321        4.7208411067        5.2914408920
  H         9.6442331186        6.4921350435        6.3194336241
  C        10.7007915559        3.0028426306        4.1431344965
  H        13.2596213200        3.3295230588       10.9463044570
  H        12.9254141426        1.6836676269       10.7718529225
  C        11.6857573052        2.5113440205       12.3743403330
  C         7.6712475152        7.7974410817       12.5680706811
  C         7.3073307641        5.5119200984       13.4696723003
  C        10.6712195986        5.4041761486        3.9790148459
  C        10.8538644959        4.0752572410        3.2450939726
  S        10.9468415510        1.5431482987        3.3160022490
  H        11.0827773441        3.4359091324       12.3246423432
  H        11.0949395833        1.6620238419       12.4362079249
  C        12.7782996434        2.5193517347       13.4265085482
  N         8.1034076339        8.7116137569       11.6176234668
  C         7.4073288391        8.3648146592       13.8171822566
  C         7.0095983150        6.1082422057       14.6954376062
  H         7.1072797638        4.4329069579       13.4112822058
  C        12.1000127188        6.0878880867        4.0744570797
  C         9.6193970329        6.3455578752        3.3322052054
  C        11.2533565214        3.7263778687        1.9437682569
  C        11.2678670022        2.3626540963        1.8154931167
  H        13.2825354561        3.4590256620       13.5624704969
  H        13.5750228061        1.8805616058       13.1155439729
  C        12.3283853054        1.9726034696       14.8206153318
  S         7.9027659905       10.1568238891       12.2665825460
  N         7.5700305128        9.7116066352       13.7317065138
  C         7.0430765107        7.6118849863       14.9830347552
  H         6.6814347190        5.4355460194       15.5056080101
  H        11.9831488342        7.0598588191        4.6284773511
  H        12.4540804520        6.3006346912        3.0632905272
  C        13.2414670595        5.2288746941        4.6543628422
  H         9.4070899862        7.1204831255        4.1004167083
  H        10.0456988494        6.9925004145        2.5255474144
  C         8.3546167317        5.6935838449        2.8848497286
  H        11.6007961267        4.4928327694        1.2321519982
  C        11.6544435019        1.6141476416        0.6099965740
  H        11.5233514605        2.5365503688       15.2965542171
  H        12.0009140967        0.9444812376       14.5443053321
  C        13.4015971310        1.7143136595       15.8794253455
  C         6.8291582443        8.2320268135       16.2468473213
  H        13.0047487027        4.9944510341        5.6819309661
  H        13.4080817021        4.2993110377        3.9792823466
  C        14.5172597967        6.0625844649        4.8802827894
  H         7.8752908658        5.2089320267        3.7575330670
  H         8.6221993713        4.9344116447        2.1562248173
  C         7.3538624411        6.7007253743        2.2750724830
  C        11.5765309891        0.2249318795        0.3433165097
  C        12.0402514160        2.3448613326       -0.5968454911
  H        14.3386013565        2.2076556648       15.7799885151
  H        13.5850579577        0.6307308653       15.9340389430
  C        12.8659358582        1.9235973772       17.2590060973
  H         6.8924131719        9.3416359353       16.2713633114
  C         6.5353088971        7.7383799023       17.4762697674
  H        14.0830810063        6.8912923180        5.5058984645
  H        15.0520629075        6.4305054011        3.9698767818
  C        15.5224179521        5.2725228231        5.7624236941
  H         7.3777967443        7.6635779385        2.7874701469
  H         7.6599005149        6.8258607073        1.2069518909
  C         6.0010531887        6.0156636916        2.4210745831
  N        11.2017584497       -0.6942875125        1.2893921462
  C        11.8646922177       -0.4394341533       -0.8349145988
  C        12.5342909657        1.6787607359       -1.7314319532
  H        12.0887847740        3.4270991265       -0.4827790570
  H        12.7279998640        2.9998672558       17.6741731571
  H        13.5407680841        1.4848840173       18.0273527690
  H        11.9326480189        1.3302503990       17.1902813326
  S         6.2329083680        6.1077625544       17.9548910577
  C         6.5690530566        8.7594540974       18.5544492063
  H        15.1838663929        5.0045664492        6.7702876200
  H        15.6527125701        4.2792131122        5.3205693838
  C        16.9526363826        5.9088047999        5.7121132347
  H         5.7573330426        5.8821310751        3.4347962543
  H         5.9626710623        5.1199203467        1.8619650966
  C         4.8627481691        6.7916379078        1.7577218850
  S        11.3358295272       -2.2290345283        0.7070515189
  N        11.6704547568       -1.8109694442       -0.7792885764
  C        12.3415451629        0.1983768338       -1.9552646448
  H        12.9029701299        2.2720626504       -2.5621547364
  C         5.8651698983        6.8331382785       19.4916825220
  N         6.0912231489        8.1458309867       19.6454137022
  O         6.9144372747        9.9555413032       18.4555488093
  H        17.3923680069        5.4801859645        4.8155722376
  H        16.8741675954        7.0371309518        5.6280591915
  C        17.8249528607        5.5665402010        6.9394629212
  H         5.1689637990        6.8303854003        0.7155773265
  H         3.9399032574        6.2194421108        1.9493014995
  C         4.7406434742        8.2125087460        2.3874331328
  C        12.6017291610       -0.5103510220       -3.1745833420
  S         5.4153695454        5.8897584606       20.8655753258
  C         5.8541414982        8.9406344851       20.8833878768
  H        17.6369623244        6.0565488982        7.8232429638
  H        17.8482867382        4.5047574249        7.1806724576
  C        19.2287293635        6.1049397620        6.7016585500
  H         5.5858918294        8.7546019504        2.0261883591
  H         4.6077305221        8.1625452821        3.4771008240
  C         3.5451995764        8.9197803267        1.8326936130
  H        12.2103176485       -1.5564073250       -3.0919873690
  C        13.1279175172       -0.2794423720       -4.4144934303
  H         5.0554506227        8.3796874034       21.4567710949
  H         5.3889467552        9.8850964640       20.6444934516
  C         7.1691117763        9.1062145523       21.6769570084
  H        19.9614456716        5.7752733280        7.5153111621
  H        19.1506098240        7.1432348080        6.7131036645
  C        19.8538965632        5.5627081253        5.4344695396
  H         2.7768321477        8.0947072456        1.8753131390
  H         3.1382307057        9.7512130384        2.4416945459
  C         3.6026814281        9.3745409681        0.4156748258
  S        13.7982491834        1.2312213128       -4.8889981838
  C        13.1405972279       -1.3511660459       -5.4541129484
  H         7.9817631210        8.6394186506       21.2115512524
  H         7.0173806604        8.7268336655       22.7682880925
  H         7.4954057250       10.1414598849       21.7065786566
  H        20.9562968743        5.7186772607        5.4268989103
  H        19.6651228167        4.5119949600        5.3414603716
  H        19.5150442307        6.1532624022        4.5465031624
  H         2.5637128244        9.4889707637        0.1176232099
  H         3.9829819659       10.3530157853        0.2785624984
  H         3.9207619310        8.6635086103       -0.3266985844
  C        13.9219489158        0.4860484529       -6.4987142955
  N        13.7093133528       -0.8474657596       -6.5729653171
  O        12.7109985797       -2.4750240568       -5.2899265611
  S        14.3510237041        1.3480216839       -7.9368157574
  C        13.7254404028       -1.6734253883       -7.6897212813
  H        14.0777686193       -2.6556161422       -7.4963075814
  H        14.4478240167       -1.3403371852       -8.3841545494
  C        12.4055983322       -1.7580295987       -8.3905310023
  H        11.5373618685       -1.5490356760       -7.7846931246
  H        12.2548904851       -2.7300867285       -8.8237254803
  H        12.3776394560       -1.0840452292       -9.2136638706
  H        -3.4176390284       12.8666782158       16.5051441698
  C        -2.5753938215       13.5687889589       16.7575043622
  H        -1.6611955635       13.0601371039       17.1053626148
  C        -2.8936104323       14.6597424297       17.7753248498
  C        -2.2013532631       14.2348030380       15.4505610026
  C        -3.4286295228       14.0984491702       19.0971444575
  H        -2.0363015810       15.2690872779       18.0052631068
  H        -3.7010120806       15.2851644466       17.4535272512
  H        -1.1225500277       14.3905395144       15.4152812503
  H        -2.3188457662       13.6183417720       14.5992831037
  H        -2.6243539137       15.1792200054       15.2144442382
  C        -2.2866380210       13.7755416695       20.0882542491
  H        -3.9378255260       13.2126952326       18.7797043226
  H        -4.2065644799       14.7374614804       19.5817448481
  C        -2.7773813955       13.3745923330       21.5122197078
  H        -1.6459948356       13.0349624133       19.6275736143
  H        -1.6421895846       14.7181235539       20.1431299485
  C        -1.6780721285       12.7161020072       22.4057257055
  H        -3.6882770333       12.7684418967       21.4014166075
  H        -3.1324309950       14.2488711482       22.0130164540
  C        -0.4961778018       13.6656651603       22.6300083784
  H        -2.1403717174       12.3520649470       23.3661830126
  H        -1.3045451208       11.7210764043       21.9527416730
  C         0.7181041739       12.9180900841       23.3156034033
  H        -0.0992135239       14.0102953642       21.7299250003
  H        -0.9867170611       14.5092855845       23.2587271890
  C         1.1426581755       11.6414183765       22.5842806988
  C         0.2786580002       12.1562056022       24.5103035361
  C         1.9863639293       13.8992323095       23.5431907803
  C         0.9544551417       10.4985950234       23.3789726310
  C         1.6850757233       11.3128420843       21.3814999830
  C         0.4686635973       10.8498631048       24.6173693489
  C        -0.2153092341       12.7602910523       25.6778965970
  H         2.2543888992       14.3176836594       22.5629417196
  H         1.6848480990       14.7069840297       24.3047209172
  C         3.2153759783       13.2265878965       24.0712600600
  S         1.5089667705        9.0648420550       22.6821668993
  C         1.8609306828        9.9841786777       21.2657828595
  H         1.8470496690       12.1032286825       20.6866698036
  C         0.0540910686       10.2117041333       25.8140716505
  H        -0.2984544612       13.8607018464       25.7024718276
  C        -0.4919203521       12.1758512811       26.8845919143
  H         3.6690188901       12.7063576581       23.2747013205
  H         3.0353756558       12.6158466505       24.8784676657
  C         4.3145615812       14.2469389901       24.4441357045
  C         2.3416570716        9.3136027693       19.9597563507
  C        -0.4081729760       10.8658900030       26.9971779591
  H         0.1763110103        9.1174056007       25.7588132604
  C        -0.8859022782       12.5711121325       28.0797294064
  H         4.9220731227       13.9766146714       25.3247022417
  H         3.7060796055       15.1301085853       24.8221712624
  C         5.2186704728       14.7399134535       23.2650082063
  C         2.4731103849        7.9136171882       19.7466225913
  C         2.7408633996       10.2328820130       18.8562731025
  C        -0.8387762595       10.1576149070       28.2134120868
  C        -1.0469094816       11.4755031736       28.9028163254
  S        -1.0968773088       14.0866723119       28.7998471935
  H         6.0642436236       15.3813982291       23.6354648301
  H         4.6040634514       15.3897611299       22.7271984208
  C         5.9332396507       13.6632432446       22.3607997463
  N         2.2171478380        6.8684221443       20.6526404050
  C         2.7906351080        7.4429657904       18.4695927607
  C         3.1204605946        9.7356373217       17.6476880180
  H         2.9832086275       11.1901913422       19.1522281084
  C         0.2625136033        9.2029983557       28.6908897157
  C        -2.1303021118        9.3511919443       28.0168771667
  C        -1.3907505471       11.8954862978       30.2172330917
  C        -1.3615782364       13.2553972832       30.3365721557
  H         6.9037797165       14.0755085357       22.1900009760
  H         6.0981061164       12.7877374881       23.0114609150
  C         5.1210022439       13.2912185435       21.1701703982
  S         2.2109227971        5.4792601199       19.7796610904
  N         2.6984758699        6.0827472974       18.3430524981
  C         3.0740444151        8.2943272794       17.3031095931
  H         3.6642080221       10.5000398040       17.0077725438
  H         0.4738341984        8.5052774833       27.8889874021
  H        -0.1442369524        8.5553705671       29.4545546979
  C         1.5067631443       10.0087266610       29.0986161686
  H        -1.9248829367        8.4870736120       27.4544620474
  H        -2.3368122240        9.0315967481       29.0812071529
  C        -3.3314548567       10.1718956799       27.3962734374
  H        -1.6135976132       11.2035585476       31.0478374254
  C        -1.5595359986       14.1055091260       31.5614160643
  H         4.0695844517       13.5164825386       21.3491861333
  H         5.2254974468       12.1823084550       20.9661634459
  C         5.6344072414       14.1260392540       19.9851149382
  C         3.3294790553        7.6792042307       16.0291563891
  H         1.7047480527       10.7173773045       28.2737366106
  H         1.4053053345       10.6952183005       29.9067893091
  C         2.7219805098        9.0768414387       29.1882816996
  H        -3.0376679320       10.5074256808       26.4103171656
  H        -3.6179910413       11.0232757790       27.9724060831
  C        -4.5062759108        9.1199243901       27.1662042847
  C        -1.6994026454       15.5282743972       31.5936181389
  C        -1.7272989912       13.4519743587       32.8994051118
  H         4.7900441679       13.9844040900       19.3153633271
  H         5.5970294612       15.1256826497       20.3721586423
  C         6.9800918141       13.5824924580       19.3993599827
  H         3.2523190822        6.6206602194       15.9218810672
  C         3.7787572102        8.2413401127       14.8706761626
  H         2.8116667800        8.4613331974       28.3486199584
  H         2.4012468126        8.3251041702       29.9427805477
  C         4.0441177727        9.6860111195       29.7213084497
  H        -4.1096086906        8.5900044262       26.3708184395
  H        -4.6106915419        8.4680114550       27.9744783277
  C        -5.8257644444        9.7734664789       26.9079558052
  N        -1.5338717056       16.3509361389       30.5191508968
  C        -1.9499585434       16.2410829228       32.7506847223
  C        -2.0314427547       14.1458436399       34.0098451525
  H        -1.7475224285       12.3240721286       33.0224795802
  H         7.1118985667       13.7906307598       18.3227383475
  H         7.6852200126       14.1353813513       20.0368264036
  H         7.1166539119       12.5264871340       19.6103479113
  S         4.0201827565        9.8932419740       14.4454253321
  C         3.9371546816        7.3137095849       13.6993837568
  H         4.3244016625       10.4000394204       28.9797084876
  H         3.7633515358       10.2466068940       30.6315023865
  C         5.1636791758        8.7102880504       29.9847008519
  H        -6.0265474952       10.6797835411       27.4481851447
  H        -6.5455957925        9.0411001963       27.3546629335
  C        -6.0680720463        9.9421411250       25.4289931003
  S        -1.5732031094       17.8986779502       31.0390483118
  N        -2.0485592609       17.5904766045       32.5701114863
  C        -2.1860737813       15.6145668103       33.9921084230
  H        -2.1801994864       13.5712914292       34.9635336747
  C         4.2348936721        9.3580357559       12.7703682773
  N         4.1321461346        8.0475112832       12.5490456113
  O         3.8818874628        6.1111749303       13.6859638097
  H         6.0674873913        9.3295799150       30.0737076522
  H         5.3490979424        7.9521526462       29.1794298363
  C         4.9099838269        7.9384291877       31.2614681554
  H        -5.3069025923       10.5655854408       25.0357543479
  H        -5.9532966578        8.9969231573       24.9258089516
  C        -7.4021939626       10.7301400536       25.1687091892
  C        -2.5232670561       16.4314743774       35.0946752680
  S         4.7185594707       10.3741154254       11.3481212063
  C         4.2056585088        7.4433992746       11.2017171632
  H         5.5448418355        8.3649473306       31.9852183808
  H         3.9106035105        7.9405468797       31.6891036074
  C         5.3209055253        6.4566994122       31.0626605451
  H        -7.1147029715       11.3630303887       24.3211112697
  H        -7.6844343092       11.4411883572       25.9581940584
  C        -8.6863378813        9.8914531142       24.8843373991
  H        -2.3804712035       17.5350296765       35.0235348084
  C        -3.1466512407       16.1503605624       36.2239964292
  H         4.5939052167        8.1830855570       10.4705743019
  H         5.0013489483        6.6912076494       11.2597674100
  C         2.8596520349        6.8773484804       10.7256107995
  H         4.8923102236        6.1080506812       30.0784506137
  H         4.6929798108        5.8272302342       31.8082165768
  C         6.7362943987        6.1437842672       31.3146143449
  H        -9.3787439209       10.6145997727       24.3218189130
  H        -8.5459626516        8.9606227445       24.2976609452
  C        -9.4784089969        9.6279887244       26.2733961338
  S        -3.6973584502       14.6086342073       36.7780155649
  C        -3.2027224693       17.2123806845       37.2768620180
  H         2.2128122451        6.6129038021       11.4829841524
  H         2.1925644539        7.5747913324       10.1588586079
  H         3.0273165365        6.0624414651       10.0244264163
  H         6.9415925778        6.4582498127       32.3205751133
  H         7.2528786975        6.7381004152       30.5811903166
  H         7.0059178879        5.0782320805       31.1573831335
  H        -8.9843721080        8.7748851757       26.7489969262
  H       -10.5351121645        9.3857715784       26.0386374983
  H        -9.4105533770       10.5191409236       26.8797789345
  C        -3.9731785097       15.3427257499       38.3461336252
  N        -3.7376887450       16.6972583146       38.3894801576
  O        -2.7962197036       18.4283578452       37.0964566447
  S        -4.5017377167       14.5588804456       39.9453877484
  C        -3.7547432440       17.5027360213       39.6066615162
  H        -4.0688331506       18.6184026915       39.4912639144
  H        -4.4845195692       17.0407604147       40.2532958525
  C        -2.4245842388       17.3935592200       40.3510675687
  H        -2.5537543679       17.2307504121       41.4297958508
  H        -1.6995915849       16.6242760322       39.9105626045
  H        -1.9096969333       18.3513821461       40.5237470579
