352
i=
  H         4.9979090462        1.6731692435       13.1739040997
  C         4.3496067561        2.5408587266       12.9441006581
  H         4.9140227798        3.5251617249       13.0752865496
  C         3.7645821870        2.2842397676       11.5650708709
  C         3.3839382472        2.3464139436       14.0654290795
  C         4.7643777681        2.7133208320       10.5983387421
  H         2.9155062658        2.9429990378       11.4794179812
  H         3.4235986398        1.2842981490       11.4302844160
  H         3.3293712137        1.2873598706       14.2495079600
  H         2.4370207253        2.8062629358       13.8063694368
  H         3.6657214477        2.8340881914       14.9834386091
  C         5.4021192361        1.5300886711        9.8041573410
  H         4.3647190514        3.3841144445        9.8860353537
  H         5.6197629729        3.2567509922       11.0383493883
  C         6.0160243765        1.8329232358        8.4054110567
  H         4.6696165271        0.7985641824        9.6416022146
  H         6.1382331064        1.1106982673       10.5126537160
  C         7.2149982244        2.7872872424        8.5711291678
  H         5.2386411440        2.2642261500        7.7724687694
  H         6.3104658235        0.8569800760        7.9853629189
  C         8.3808699687        2.0727097259        9.2760649145
  H         7.5349589566        2.8471523572        7.5970771962
  H         6.8642837396        3.7824126981        8.9243580625
  C         9.6685912633        2.8956731501        9.3963857502
  H         8.6032846450        1.2676175015        8.5499103127
  H         8.1490092677        1.5195726694       10.2195857805
  C         9.2838238038        4.1654930989       10.1588346562
  C         9.9915949126        3.6834763876        8.1629030281
  C        10.7564685146        2.1665722985       10.1712433893
  C         9.5060200961        5.3305194439        9.4318431752
  C         8.7643849232        4.5542815396       11.4276470444
  C         9.9505292069        5.0486840536        8.1823236958
  C        10.4310321781        3.1502768500        6.9611365683
  H        10.3039225365        1.5755310307       10.9839895306
  H        11.1919937711        1.4029544687        9.4972781118
  C        11.9344223029        3.0457651662       10.6277895033
  S         9.0521442099        6.8410515139       10.1416198125
  C         8.5561401391        5.9535763092       11.5258107946
  H         8.5998192708        3.7451599745       12.1624181747
  C        10.2157306944        5.7905862361        7.0727427397
  H        10.5470023167        2.0944615589        6.7396696400
  C        10.7271112462        3.8514889488        5.8732489817
  H        11.5415977151        3.9113162883       11.1883479287
  H        12.3537134479        3.4800703620        9.6933748448
  C        13.1650462490        2.4854422717       11.2987842112
  C         8.0229429083        6.7317953106       12.7238562803
  C        10.6303437251        5.1934906053        5.8538779201
  H        10.0901015153        6.8465392820        7.0335749012
  C        11.0976473380        3.4841992680        4.6157869341
  H        13.9952334729        3.1632127910       11.2668377933
  H        13.4771494284        1.6141317479       10.6813266799
  C        12.8203243748        1.9672769946       12.7197527296
  C         8.0984988963        8.1109045000       12.9893370928
  C         7.6027588931        5.9001849911       13.9033746723
  C        11.0151577774        5.9358929222        4.6024634969
  C        11.2365428691        4.5845407272        3.8438902509
  S        11.3055513391        2.0165446237        3.8499258133
  H        11.8224390375        1.6955382965       12.8359365606
  H        13.4898195288        1.1794016144       12.9842619077
  C        12.9653964941        3.1335004254       13.6712527342
  N         8.4277044659        9.0874583667       12.0763823219
  C         7.8142685083        8.6949388658       14.2525286003
  C         7.1726445211        6.4932622119       15.1193090650
  H         7.4758031568        4.8265149017       13.7723180780
  C        12.3723348676        6.7190630484        4.9523327207
  C         9.9674576210        6.7643852346        3.8861028002
  C        11.5309630318        4.2316319266        2.4873791394
  C        11.6426367388        2.8428230702        2.3892020565
  H        12.8718048519        4.0579029569       13.0648576904
  H        13.9409780791        2.9782138257       14.0923199499
  C        11.9374415104        3.1383837717       14.8363004238
  S         8.4511287432       10.5107779751       12.8174073729
  N         7.9502827318       10.0537477938       14.2744262334
  C         7.3226186977        7.9421409808       15.4045427544
  H         6.7893314009        5.8198323027       15.9065149099
  H        12.1253341242        7.5067345162        5.6855447841
  H        12.7955449461        7.0948977597        4.1016751136
  C        13.5205388392        5.7757292922        5.5120432406
  H         9.6195103754        7.4815085548        4.6181003286
  H        10.3860387112        7.2563450158        3.0316827965
  C         8.7083288444        6.0356149679        3.6082177406
  H        11.6729850891        5.0318723769        1.7833602867
  C        12.0555363516        2.0241155777        1.1972106495
  H        11.7905563107        4.1366784880       15.2968240509
  H        10.9619588448        2.8528903431       14.2677815290
  C        12.2622866944        2.1163187146       15.9964428774
  C         6.9919452247        8.6129627935       16.6336768623
  H        13.1839056061        5.0219165764        6.2067032160
  H        14.0251785428        5.2360847252        4.7141985905
  C        14.5969116450        6.6669388666        5.9874415770
  H         8.1779289099        6.0713738299        4.5347512676
  H         8.7767791588        4.9637869331        3.4059633661
  C         7.9870559706        6.6793567339        2.4025796560
  C        12.1444744622        0.6134726944        1.1794585000
  C        12.3382014142        2.7039507238       -0.0936596484
  H        13.1682276421        1.6535592703       15.7569809730
  H        11.4841224403        1.3091030526       16.0439208002
  C        12.4568711935        2.8141317173       17.4162031030
  H         7.1001520288        9.6657807146       16.4888721651
  C         6.6076446026        8.2084718610       17.8335006590
  H        14.3189672683        7.4004686409        6.7712832786
  H        14.9760040460        7.3919774603        5.2810201279
  C        15.8026809603        5.8954770386        6.6698212127
  H         8.0848647875        7.7588896400        2.4206593235
  H         8.4805698990        6.3006389841        1.5299876145
  C         6.4913003123        6.4540303427        2.6051988546
  N        12.0835675971       -0.3038206373        2.2517337607
  C        12.3514513548       -0.1313605807        0.0251335447
  C        12.6371364497        1.9595529615       -1.2254413865
  H        12.1604270251        3.7461444111       -0.1911448790
  H        12.0134510308        3.8305132585       17.4876411250
  H        13.5289375917        2.8979738304       17.6992536918
  H        11.9823493889        2.2179322167       18.2256501344
  S         6.3210233944        6.6219646378       18.4667246868
  C         6.6855679877        9.2642572875       18.8639110867
  H        16.0068495702        6.4156557926        7.6214542452
  H        15.4084688368        4.8366066596        6.9982441527
  C        16.9901547907        5.5976163132        5.7927266229
  H         6.2075813232        5.6105467745        3.1733637314
  H         5.9708547453        6.3585156070        1.7031115379
  C         5.7787173877        7.6240659746        3.2586590311
  S        12.1142804102       -1.8591091827        1.7814470768
  N        12.4264617750       -1.5346136491        0.2160539880
  C        12.6950033685        0.4753597174       -1.2266903694
  H        12.9265839480        2.5106058887       -2.1355993485
  C         5.9447233407        7.3943766277       20.0311866053
  N         6.2218287476        8.7538455892       20.0084659962
  O         6.7612028802       10.4286123179       18.5173566099
  H        16.6794036525        4.9750439157        4.9108438478
  H        17.4534091770        6.5405366446        5.4581169760
  C        17.9710514032        4.7273455176        6.5093851983
  H         4.9032529127        7.1657237637        3.6955937568
  H         6.3754448396        7.9262074300        4.0977769167
  C         5.4274058013        8.8509701021        2.3525243789
  C        13.1182809093       -0.4005974901       -2.3319509089
  S         5.4289658612        6.6790900464       21.5273851126
  C         6.1962658423        9.5466757823       21.2203064168
  H        17.3710618571        3.9242012748        7.0529064727
  H        18.6250170713        4.1729034353        5.7266362120
  C        18.8274917966        5.5250033979        7.4372078754
  H         6.3120672156        9.1436122759        1.7305635469
  H         5.1903911441        9.6816137018        3.0285160749
  C         4.1537137613        8.7286533375        1.5872277311
  H        12.7104466891       -1.3892619285       -2.2723801877
  C        13.3746679685       -0.0331314960       -3.6277779491
  H         5.4830480468        9.2412919226       21.9909244467
  H         5.7229973451       10.4899268157       20.9788467717
  C         7.5704266669        9.7780002744       21.8040609594
  H        19.0829679709        5.0222919185        8.3323744832
  H        18.2904792199        6.4209450876        7.8117329759
  C        20.1819929467        5.9775290008        6.8201675431
  H         4.0759298312        7.9623298101        0.8049901529
  H         3.4291673837        8.2311073641        2.3051599396
  C         3.5718564919       10.0035516093        1.1105205391
  S        13.6297693626        1.5492261940       -4.2372639430
  C        13.3816208314       -1.1181942823       -4.6950329092
  H         7.8433016149        8.9477202063       22.4543354021
  H         7.6141287484       10.6079652432       22.4705628230
  H         8.3341367781        9.9890623431       21.2064610195
  H        20.1248524101        6.5333034761        5.8856048316
  H        20.7631686135        6.5352172150        7.5376466138
  H        20.7373180157        5.0915898783        6.5952128734
  H         2.9218559857        9.8453529578        0.2335900252
  H         2.8715117187       10.3547897735        1.9045555990
  H         4.2787669738       10.8242363238        0.9399999889
  C        13.9455250040        0.8159770133       -5.7537064316
  N        13.8504607898       -0.5630969980       -5.8015552244
  O        13.1764429006       -2.3392667490       -4.5264668547
  S        14.6767731605        1.5720078557       -7.1323431907
  C        14.1238289353       -1.3969932410       -6.9621445700
  H        14.4420528182       -2.3434349520       -6.5109325251
  H        15.0563137514       -1.0330457162       -7.4651977012
  C        12.8736565032       -1.6712531148       -7.8576175059
  H        12.0420565660       -2.0439438328       -7.2066147415
  H        13.3703295177       -2.4170014463       -8.5113017078
  H        12.6195999531       -0.9746825178       -8.6031802808
  H        -2.9751073332       15.0224757465       16.3777659629
  C        -2.5625039623       14.0553004293       16.2967104135
  H        -3.4195730834       13.3638696087       16.4388162183
  C        -1.5842710401       13.8748794596       17.4513147309
  C        -2.1841258302       13.6352359264       14.8359694982
  C        -2.1897862017       14.0767866186       18.8142446392
  H        -1.2445872516       12.8283648687       17.4793232908
  H        -0.6923779555       14.4873811478       17.4346062860
  H        -1.1876561758       13.9652714762       14.5715707845
  H        -2.2798480130       12.5815125247       14.6175087657
  H        -2.9372191424       14.0950797027       14.2835188044
  C        -1.7795538275       12.9813647939       19.7524991442
  H        -3.2497985159       14.4163715481       18.8457440819
  H        -1.6688986095       14.9839955843       19.0577967876
  C        -2.3421910527       13.1238532049       21.2017204776
  H        -2.0841966715       11.9872312873       19.2461296710
  H        -0.6631179336       12.9404102244       19.8007436671
  C        -1.2274067195       12.7094373179       22.1902505890
  H        -3.2807982871       12.5327163844       21.3093192871
  H        -2.5968376112       14.1246536673       21.4336644785
  C        -0.0038566885       13.6973462134       22.4523309824
  H        -1.7375788756       12.4477072750       23.1473424679
  H        -0.8105426286       11.7979232953       21.8228479570
  C         1.0991803228       13.1196442868       23.2452001263
  H         0.4042422567       14.0526777398       21.4924385878
  H        -0.4229494676       14.5642383682       23.0121499426
  C         1.4856935285       11.8108823002       22.6173882929
  C         0.6651118345       12.3970746271       24.4839527551
  C         2.3213034755       14.0976895628       23.3226151935
  C         1.2754714408       10.7094947137       23.4366248559
  C         2.0156176397       11.3712210377       21.3790063708
  C         0.6318744073       11.0838161871       24.5917693807
  C         0.2193163372       13.0050828360       25.6503410534
  H         2.5275047373       14.3539014549       22.2864264153
  H         2.0673160451       15.1336013921       23.6379631993
  C         3.6373527010       13.5218793936       23.9362387041
  S         1.7314066539        9.2233061861       22.8124877645
  C         2.2062453077       10.0161262862       21.2918576285
  H         2.2013140435       12.1807241637       20.6685425138
  C         0.1507346835       10.4878069434       25.7399102899
  H         0.2422094136       14.1007410562       25.6176612139
  C        -0.1392043818       12.4287909961       26.8393463711
  H         3.8243141722       12.5067845024       23.5513394120
  H         3.5643740320       13.4006795918       25.0085644386
  C         4.8735348393       14.4447332380       23.7650343426
  C         2.7343639171        9.3680851810       20.0105939751
  C        -0.2353542257       11.0619658642       26.9133765738
  H         0.2099000259        9.4204246356       25.6413700351
  C        -0.5271468074       12.8619694728       28.0983116453
  H         5.6480826883       14.1646904959       24.4388260916
  H         4.5939585230       15.4068057840       24.2250136144
  C         5.3477409570       14.5105071421       22.3261190596
  C         2.6551562912        8.0400902174       19.7252933973
  C         3.2119344044       10.2326559747       18.8658866025
  C        -0.6899853597       10.3968037046       28.1654878134
  C        -0.8442583345       11.7697498996       28.8951643424
  S        -0.6772677073       14.3541081784       28.8868221052
  H         6.1014065252       15.3280306842       22.3238242273
  H         4.5205695221       14.8253306674       21.7952643091
  C         6.0072666353       13.2191634843       21.7617883931
  N         2.1068913387        7.0784726407       20.5697076252
  C         2.9906716740        7.4814435413       18.5019134572
  C         3.4515143966        9.7018819560       17.6413408895
  H         3.4238106803       11.2769592622       18.8846303270
  C         0.4493402007        9.4810296166       28.7941783363
  C        -2.0289490828        9.6747902934       27.8775724279
  C        -1.1920118502       12.1849271675       30.1859820705
  C        -1.1665343678       13.5655029552       30.3132414237
  H         6.8821181525       12.9397679310       22.3824869704
  H         5.2916595445       12.4655636779       21.9164143796
  C         6.2687773156       13.4573347766       20.2622125561
  S         2.2261180507        5.5505854455       19.8721035175
  N         2.9497143780        6.0770332134       18.4486309285
  C         3.3486124923        8.2500995473       17.3917981089
  H         3.6954698431       10.3928070461       16.8452328421
  H         0.9676693855        9.1020688958       27.9345105357
  H         0.0380358242        8.5911308281       29.2609456294
  C         1.6168470198       10.3211672041       29.4798927185
  H        -1.9953413769        9.0870837642       26.9101291019
  H        -2.2931155417        8.9697695698       28.6591898956
  C        -3.2586566547       10.6065738627       27.7779869819
  H        -1.3580602559       11.4800802111       30.9070578594
  C        -1.3999133508       14.4214861678       31.5395136087
  H         5.8535350118       14.3673335547       19.8708271871
  H         5.6368326112       12.6460444093       19.8177223882
  C         7.7819444978       13.4214349260       19.8864623646
  C         3.6656325091        7.5935547323       16.1521879419
  H         1.8241633506       11.1281012136       28.7953186002
  H         1.3171628530       10.8671027749       30.4196935372
  C         2.7976256321        9.4250332561       29.7662714656
  H        -3.0096632706       11.3608819488       27.0044635095
  H        -3.4082904153       11.1883692642       28.6423697637
  C        -4.6148530028        9.9881705260       27.4893080246
  C        -1.5162749809       15.7662732856       31.6899417981
  C        -1.5494471688       13.6640846477       32.7882427410
  H         8.4251802664       13.8384737235       20.6917270149
  H         7.9907866620       12.3576662575       19.8550466495
  C         7.9396618431       13.8142919237       18.4228796339
  H         3.2828236282        6.5605019808       16.1624790024
  C         3.8622392933        8.0141806913       14.8660336034
  H         2.9459626562        8.6052218106       29.0582651845
  H         2.5301721896        8.9195061537       30.7728359569
  C         4.1575787884       10.0924614734       29.9467201448
  H        -4.5958524958        8.8703201487       27.5209794571
  H        -5.2095637500       10.1249588809       28.3479627241
  C        -5.3409208321       10.5775191801       26.3144397405
  N        -1.4803506117       16.6355956507       30.6105089862
  C        -1.7267512205       16.3908704483       32.8814146379
  C        -1.8430260155       14.3085902477       33.9929449517
  H        -1.3824732543       12.6154996800       32.7715344689
  H         6.8719349822       13.8659711352       17.9994089456
  H         8.3843553119       14.7798099494       18.3871203178
  H         8.5017106197       13.0214416478       17.9661308890
  S         4.2408377399        9.5948485077       14.2630706729
  C         3.8758036043        6.9826456659       13.7661368375
  H         4.2983476289       10.8123485965       29.1257298453
  H         4.1398656036       10.6805051861       30.8819410828
  C         5.2338591669        8.9721850768       29.9647277915
  H        -4.7782003532       10.4605970925       25.3939229442
  H        -5.4467752692       11.6562117912       26.4752473638
  C        -6.6697158944       10.0085570256       26.0175311108
  S        -1.6013142804       18.1672278340       31.1271759103
  N        -1.9415982810       17.7765514957       32.6904225242
  C        -2.0393413855       15.7545077199       34.0628867137
  H        -1.9079443969       13.7153397959       34.9079278224
  C         4.5860736438        8.8355053744       12.7795897376
  N         4.3877841633        7.5026514302       12.6821048485
  O         3.7467091238        5.7918527169       13.9962218328
  H         6.2157243367        9.4294480055       29.9734860808
  H         5.1127956445        8.3041071751       29.0191193660
  C         5.2497303730        8.2728990471       31.3587881190
  H        -6.5839908968        8.9968792172       25.4940954027
  H        -7.1266073478        9.7932832852       27.0003680258
  C        -7.4360337032       10.8917953596       25.1317542167
  C        -2.3410741680       16.6134233118       35.1959900631
  S         5.1914795666        9.7438806053       11.3462517469
  C         4.5716775791        6.7485757107       11.4446324848
  H         5.9077754489        8.8573088497       31.9969783244
  H         4.3015377124        8.2896041060       31.8341360189
  C         5.8748119691        6.8351394372       31.2375251528
  H        -6.7580302169       11.2660538159       24.3926624806
  H        -7.7543806864       11.7330044009       25.6379527895
  C        -8.5776411486       10.1491582272       24.3877318021
  H        -2.0351127656       17.6949864098       35.1395473517
  C        -2.9637639204       16.3977651859       36.3691464938
  H         5.4251001503        7.0565412774       10.9078606269
  H         4.7439917751        5.7414778164       11.6344791727
  C         3.2642292329        6.7361409887       10.6871442575
  H         5.5481287367        6.4344665665       30.2983248295
  H         5.5210515334        6.1590780850       32.0627983360
  C         7.4516020151        6.7616951466       31.3074870420
  H        -9.1643237050       10.7624509047       23.6389062171
  H        -8.2122009438        9.2939396886       23.9027949949
  C        -9.5888942788        9.7839837246       25.4235043678
  S        -3.6488587229       14.8546421811       36.8957231866
  C        -3.0264982041       17.5064022941       37.3019125628
  H         3.0406259972        5.8051716623       10.1184891802
  H         2.4199325760        6.9484419282       11.3800520228
  H         3.1684803224        7.5445401187        9.9346165742
  H         7.8247677141        5.9810249655       30.7172329602
  H         7.7757544463        6.7318683838       32.3444053222
  H         7.9902339590        7.6729513304       30.9111320608
  H        -9.9035266654       10.5655682889       26.0759361961
  H        -9.2933554864        8.8986774270       26.0370142670
  H       -10.5057720853        9.5256315955       24.9751105403
  C        -3.9245892525       15.7220159923       38.3857240025
  N        -3.5534289767       17.0405203802       38.4363644610
  O        -2.4637131934       18.6352736708       37.0925176774
  S        -4.6976924502       15.0282496022       39.8163076071
  C        -3.6621250375       17.8367411055       39.6571072509
  H        -3.9124298780       18.8231996902       39.3511472564
  H        -4.3652431842       17.5160661384       40.4406681403
  C        -2.3350217133       17.8435527141       40.3583489283
  H        -1.9720475988       18.8659300671       40.5342733380
  H        -2.3997318205       17.4163176072       41.3813579160
  H        -1.5821834324       17.3012491066       39.7928690764
