352
i=
  H         4.7288270689        1.4441327916       12.5855666440
  C         4.2530935049        2.4531794241       12.6485483748
  H         5.0998715022        3.1476301521       12.7873845428
  C         3.5025430774        2.7733316211       11.3608152908
  C         3.3604482025        2.3490375733       13.8489905647
  C         4.3926530137        2.8462626078       10.1239697137
  H         2.8961604683        3.5885269788       11.5423004386
  H         2.9014170367        1.8988014807       11.1302405918
  H         2.4437941671        1.7871298539       13.6930837404
  H         3.1806676271        3.3522107182       14.1739012796
  H         3.7844891706        1.8819702877       14.7259420046
  C         5.3103533192        1.5610982244        9.8848608194
  H         3.8017901044        2.9049591668        9.2273401822
  H         4.9485908042        3.7304166587       10.1955794769
  C         6.1266158346        1.5981595148        8.5803557790
  H         4.6545510292        0.6392332460        9.9049459022
  H         6.0047997206        1.3475843735       10.6629971976
  C         7.3430719172        2.5467200149        8.7785930840
  H         5.4929634434        1.8815144539        7.7382476489
  H         6.5041065297        0.6087938799        8.4041402249
  C         8.6332317426        1.9503243481        9.3254655247
  H         7.5443013855        2.9584194082        7.7164358662
  H         6.9191884790        3.4309554330        9.2859164940
  C         9.6557251965        3.0632834816        9.4494191395
  H         9.0666439587        1.1568954721        8.6912964786
  H         8.5527094718        1.3811792067       10.2667196510
  C         9.1090867488        4.3334946628       10.0690319506
  C         9.8833131477        3.7657417128        8.1781876819
  C        10.9093528410        2.5478292712       10.2603391014
  C         9.1173436388        5.4516320073        9.2487680392
  C         8.6214473762        4.6376273973       11.3868615857
  C         9.6325548019        5.1236266727        8.0039031942
  C        10.4357650844        3.1753582851        7.0372641899
  H        10.6256285377        1.8252150193       11.0384823488
  H        11.4041989012        1.9215274293        9.5218441802
  C        11.8918615957        3.5768058395       10.7518044526
  S         8.4829095613        6.9016690749        9.9516730296
  C         8.2344513306        5.9633137503       11.4673410856
  H         8.6441939068        3.8370977958       12.1437006026
  C         9.9361836944        5.7549398759        6.8191046869
  H        10.5803879987        2.0784533431        7.0787396269
  C        10.7577141880        3.8357888522        5.8755233608
  H        11.5179521671        4.1607284310       11.5670104263
  H        12.1937460642        4.1333697032        9.8519970830
  C        13.1163944995        2.9957418037       11.4367993551
  C         7.8081081934        6.7011404758       12.6819954117
  C        10.6182167658        5.1905574645        5.7460295532
  H         9.9368908461        6.8236226010        6.7100629793
  C        11.1592359447        3.4230407802        4.5920481365
  H        13.8848554533        3.8258967947       11.5381629833
  H        13.4220825943        2.2446091226       10.7413895635
  C        12.8164673792        2.2036642408       12.7770582346
  C         7.9354250825        8.1216132192       12.9170895800
  C         7.2534585176        5.9257201562       13.8451340575
  C        10.9169906791        5.8498680080        4.4681923546
  C        11.3244425361        4.4895610541        3.8204483377
  S        11.3798164315        1.8619296602        3.8226634998
  H        11.7942664023        1.7610668084       12.7301445012
  H        13.4886772326        1.3692633194       12.8485836482
  C        13.0432219768        3.0785972573       14.0378123658
  N         8.3537535291        9.0825577253       12.0206653771
  C         7.6709939513        8.6656646404       14.1474402745
  C         7.0152159695        6.4998040682       15.0723085486
  H         7.1416846684        4.8298519889       13.6516553995
  C        12.1147040082        6.8507494401        4.6506951672
  C         9.7072578333        6.5164614298        3.6886547983
  C        11.6896912199        4.0218651145        2.5144742525
  C        11.6771347829        2.6527908381        2.3621927589
  H        12.9276496846        4.0633794108       13.6591971641
  H        14.0871581058        3.0364180420       14.3352454218
  C        12.0654275336        2.8536453224       15.2084606846
  S         8.4441507126       10.5167059755       12.8344381655
  N         7.8259532476       10.0270067419       14.2038161480
  C         7.1336924837        7.9382871239       15.2747647853
  H         6.6382180532        5.8822087296       15.8373116866
  H        11.8652496412        7.5371230341        5.4380024557
  H        12.3705736893        7.4610953788        3.7237826691
  C        13.5468877027        6.1756491142        4.9992330251
  H         9.4523010747        7.3961015371        4.3121662741
  H        10.2246916375        6.9065529110        2.7724055685
  C         8.5274681228        5.6892564760        3.3659741883
  H        11.7593904568        4.7289902984        1.7056723610
  C        11.9481250142        1.8563157384        1.0863158420
  H        11.8569505590        3.7932114451       15.7350824375
  H        11.1594520925        2.6176341017       14.7366917779
  C        12.4457484010        1.9445474180       16.3028036166
  C         6.8941901460        8.6100977626       16.5329870900
  H        13.5366017288        5.1853445620        5.5910357454
  H        14.0636902549        5.9162899579        4.0487339788
  C        14.3894930801        7.1225786495        5.8385909211
  H         7.9897212169        5.6212027679        4.3311174816
  H         8.7293298472        4.6595194559        3.1122786453
  C         7.6854668648        6.3014271821        2.2126658351
  C        12.0290232694        0.4566246583        0.8933499152
  C        12.0272445617        2.7634431120       -0.1554297493
  H        12.8741250286        0.9733989327       15.8589886778
  H        11.5299821362        1.6807339367       16.8333805456
  C        13.4672060833        2.4810287208       17.3866343247
  H         6.6407548655        9.6847173146       16.4398042255
  C         6.6323147199        8.1448937964       17.8306247745
  H        13.8554306524        7.7495962817        6.5056291661
  H        14.9683545049        7.7669605094        5.1563804766
  C        15.4412273286        6.3712037210        6.6457883690
  H         7.9734554946        7.2331257969        1.8570257460
  H         7.7905915763        5.6092976977        1.4250812481
  C         6.1667273053        6.4634082575        2.5896031948
  N        11.9543731739       -0.5097303798        1.8925002630
  C        12.2784175317       -0.0850985490       -0.3406146682
  C        12.3681630315        2.1744184703       -1.3641520579
  H        11.9236768606        3.8538257884       -0.1792419497
  H        13.0737406753        3.4572997490       17.7858601266
  H        14.4985036497        2.6449995118       16.9728324470
  H        13.5375185884        1.7832853605       18.2614278246
  S         6.4629357262        6.5405539234       18.3580597503
  C         6.5784429615        9.2515665162       18.8492098300
  H        15.6769914180        7.0703620961        7.5269344254
  H        15.0260331474        5.4540622870        7.0819673761
  C        16.6554322804        6.0481248742        5.7733681108
  H         5.8488456097        5.5752825992        3.1305506926
  H         5.5302083065        6.4886655654        1.7345611975
  C         5.7480993798        7.6412748902        3.4351795948
  S        12.0939225762       -2.0331233168        1.2642007416
  N        12.3309829938       -1.4867896964       -0.3160593798
  C        12.6208060825        0.6811155421       -1.5039452358
  H        12.4297444195        2.7413934001       -2.2907036837
  C         6.3073431029        7.1920522242       19.9077629940
  N         6.2755818050        8.5709332258       20.0108862421
  O         6.6361399639       10.5155367619       18.6260218569
  H        16.3593216958        5.5556431518        4.8666604330
  H        17.1147192567        7.0238208196        5.5313072424
  C        17.4360673421        5.0476982778        6.5905946908
  H         4.8293405207        7.1843302395        3.9192438163
  H         6.5298144466        7.8735078077        4.2495510684
  C         5.4402592475        8.8702107345        2.5650738238
  C        12.9550962063        0.0009971040       -2.7223688345
  S         5.8379764514        6.2440483163       21.2653125358
  C         6.2033740694        9.2439028947       21.2760604274
  H        16.7263220727        4.4802068211        7.1487811864
  H        17.9742876967        4.4162002979        5.9262353395
  C        18.4100967108        5.8190786872        7.4976351389
  H         6.1871001069        9.0477066627        1.8324577269
  H         5.4233556823        9.6566669378        3.3177769807
  C         3.9959512534        8.8107649682        2.0296382637
  H        12.8770118607       -1.0678664676       -2.6484756799
  C        13.2853116522        0.2717344951       -3.9943117724
  H         5.4889273136        8.8247857119       21.9664395849
  H         5.7646474977       10.2331688022       21.1623395417
  C         7.5534600270        9.2907317140       22.0393691082
  H        18.4710805069        5.2928992375        8.4330896266
  H        17.9744197832        6.6779430850        7.8200939966
  C        19.7876571807        6.0037846713        6.8750067215
  H         3.7255653140        8.0104398032        1.3038188692
  H         3.3098623177        8.5600860489        2.8298424807
  C         3.6506040015       10.1728902551        1.4418721582
  S        13.7902368077        1.8717156882       -4.6057417171
  C        13.3713162250       -0.8299862351       -4.9151064984
  H         7.6711109964        8.3928852851       22.6610788759
  H         7.5828517857       10.2630045549       22.5678270535
  H         8.3011600116        9.4671419216       21.1761168233
  H        19.7625568018        6.6118930923        5.9864035241
  H        20.4651871243        6.4349033422        7.5827279403
  H        20.0829043041        5.0261192279        6.5187923927
  H         2.6758173630       10.3916619462        1.9105099863
  H         4.3399300378       10.8754286398        1.8603484498
  H         3.6725807898       10.2863972025        0.3301805764
  C        14.0611642918        1.0144374261       -6.1278394341
  N        13.9602407605       -0.3530934077       -6.0453918427
  O        13.1864989227       -2.0158630272       -4.6522322400
  S        14.8296238500        1.7472864035       -7.4941295736
  C        14.1553595054       -1.2236944914       -7.1132556612
  H        14.4420346112       -2.2089975541       -6.7552709508
  H        15.0103256653       -0.8838639219       -7.6387220514
  C        12.9249339016       -1.2903748002       -8.0503590815
  H        11.9889876083       -1.1196162197       -7.4689695016
  H        12.9189399654       -2.2036530610       -8.6186761352
  H        13.1830497355       -0.5993980705       -8.9323724978
  H        -3.3354497483       15.3543318788       16.5285229620
  C        -3.1646560129       14.2597630700       16.2528390954
  H        -4.1710938307       13.8120999376       16.1684562075
  C        -2.4317079431       13.6875420791       17.4640976610
  C        -2.4103569050       13.8988393981       14.9857691008
  C        -2.6598152654       14.2917150866       18.8199532743
  H        -2.6974405333       12.6894081909       17.4817028674
  H        -1.3385085424       13.6960223017       17.3165197858
  H        -1.5017174951       14.3969986295       14.8721376640
  H        -2.1310377821       12.8739226978       15.0157118123
  H        -3.0694701693       13.9811546653       14.0812497153
  C        -1.8604101611       13.4518705829       19.8048407131
  H        -3.6584324218       14.4413456613       19.0697105032
  H        -2.2337366673       15.2871985242       18.8526079191
  C        -2.2786018266       13.7869810070       21.2520494203
  H        -1.8952692157       12.3743860021       19.6772433088
  H        -0.8409222895       13.9015268518       19.7164524754
  C        -1.4405986211       13.0513055028       22.3650897849
  H        -3.2795743866       13.4683519281       21.3117994389
  H        -2.3369114561       14.8434883465       21.5232214140
  C        -0.1609070117       13.7684323276       22.6492621869
  H        -1.9623869829       12.9167485404       23.2924072957
  H        -1.2683431350       12.0187234199       22.0377372806
  C         0.9994165392       13.0670857155       23.3596747145
  H         0.3210274811       13.9604021049       21.6442096397
  H        -0.4290050943       14.7088185509       23.1672145561
  C         1.3231991734       11.8091470184       22.6373853291
  C         0.6203788891       12.3533889852       24.6080527892
  C         2.2861030134       13.9928528233       23.4061913830
  C         1.0842237806       10.6801765524       23.3629183143
  C         1.8181477288       11.4122182951       21.3836786014
  C         0.6056927666       11.0030356502       24.6648865106
  C         0.2559117968       12.8822874566       25.7878210221
  H         2.3517631695       14.5167507431       22.4367025294
  H         2.1025192488       14.9019081222       23.9547246078
  C         3.6026264351       13.3553402705       23.9635442843
  S         1.3828555568        9.2044456669       22.6162280260
  C         1.9502309949       10.0497123919       21.2455065422
  H         2.0439896911       12.1118894780       20.6028704276
  C         0.2079708574       10.2922503357       25.7895023588
  H         0.4329096751       13.9480314800       25.8424519933
  C        -0.1177446174       12.2544310703       26.9311214189
  H         3.8641072928       12.5776895586       23.2491859655
  H         3.4764486106       12.8646485165       24.9085054499
  C         4.8587503729       14.3077182192       24.1343936661
  C         2.4147428898        9.3653147904       20.0157514778
  C        -0.1738133699       10.8845531006       26.9694940398
  H         0.3982567858        9.2639498695       25.7024302695
  C        -0.4424636527       12.6662380617       28.1531299374
  H         5.6299625737       13.9663070647       24.8497852275
  H         4.5086484508       15.1506956044       24.6847086464
  C         5.3702914083       14.8784533209       22.8169249525
  C         2.5350109000        7.9602385022       19.7893259502
  C         2.9458699751       10.1928741451       18.8531779865
  C        -0.5040245751       10.2396528476       28.2461476311
  C        -0.7605224291       11.5995375828       28.9680917015
  S        -0.6522305213       14.2047758329       28.8229816578
  H         5.9419777258       15.7258262082       23.0874926430
  H         4.6029060578       15.2533308689       22.1020866389
  C         6.4068412196       13.9800603434       22.1806433332
  N         2.3548408111        6.9812733622       20.7610350482
  C         2.8225926280        7.4352879697       18.5671766689
  C         3.2941692077        9.6506141994       17.6342600475
  H         3.0570228276       11.2580122490       18.9471792341
  C         0.6170426158        9.4120165481       28.8905791326
  C        -1.7817549382        9.4073324736       27.9713723549
  C        -1.0805580553       12.0637697548       30.2674846852
  C        -1.1320951420       13.4850368123       30.3142547592
  H         7.4049687934       14.2333032925       22.4303027703
  H         6.3624584980       12.8885905435       22.3995265031
  C         6.2272803423       14.0333144764       20.6486432670
  S         2.4926064842        5.5418210275       20.1055038960
  N         2.8165792144        6.0349587077       18.5801532124
  C         3.1545977618        8.1708268172       17.3889693803
  H         3.7164734505       10.1857535181       16.7980247105
  H         0.7453657826        8.3792730738       28.5116698540
  H         0.3379422862        9.2251092172       29.9363820345
  C         2.0277182234        9.9935249360       28.7468075434
  H        -1.4696342483        8.6863047505       27.2194389411
  H        -2.1532714984        8.8587972948       28.8806000527
  C        -2.9890865889       10.1850873515       27.5338606790
  H        -1.5424465345       11.4501458743       30.9509352330
  C        -1.5365891247       14.3520849323       31.4127520651
  H         6.0578815341       15.0213519392       20.2228054987
  H         5.4905915397       13.2752064512       20.4951706306
  C         7.4978184575       13.4950376563       19.8770768822
  C         3.4053236108        7.4738140877       16.1051923122
  H         2.5030328900        9.6198215473       27.8220508915
  H         2.0522185163       11.0641445437       28.7117229606
  C         3.0307344065        9.6234609247       29.8809526774
  H        -2.8261347372       10.8712707359       26.7702004282
  H        -3.3037222216       10.7498123404       28.4117773850
  C        -4.2331865432        9.4171558478       27.1447128266
  C        -1.4745883542       15.7534793670       31.4935858172
  C        -1.8621689641       13.5956183386       32.6550119601
  H         8.3673618706       14.0905630848       20.0767826096
  H         7.7689380516       12.4908259544       20.2094946490
  C         7.1836347152       13.3303452126       18.3742143811
  H         3.3651644092        6.4028242518       16.1393543355
  C         3.7531300043        7.8828749343       14.8348900534
  H         2.7894058962        8.6496479319       30.2855061027
  H         2.7431996805       10.3277481735       30.5995153299
  C         4.5261276819        9.7993727634       29.7089435343
  H        -4.0505482395        8.7512375378       26.3440070121
  H        -4.5752939219        8.7512875782       27.9728582793
  C        -5.3982674947       10.4005902484       26.8059188554
  N        -1.2272007113       16.6693122550       30.4748355127
  C        -1.8299625603       16.4541778629       32.6188289331
  C        -2.1218271464       14.3456372806       33.7946476155
  H        -2.0131540067       12.5476914912       32.6342932407
  H         6.1806995029       13.0427094692       18.3790025714
  H         7.1904531484       14.3169344042       17.8218446910
  H         7.7523703664       12.4986085183       17.8690106307
  S         4.2632534946        9.5060297530       14.3856999825
  C         3.7548331002        6.9258617890       13.6992934420
  H         4.7067093967       10.4300534356       28.8484245789
  H         4.8691201525       10.3392405852       30.5626533430
  C         5.3098454543        8.4488242201       29.6860152904
  H        -4.9791691267       11.1868084263       26.1233907749
  H        -5.8042141305       10.8845664421       27.7135905429
  C        -6.6199345390        9.6145032326       26.2583699767
  S        -1.1666577143       18.1815835717       31.0182455794
  N        -1.7246949149       17.8518438376       32.4770056566
  C        -2.1128874588       15.8252182254       33.8640106953
  H        -2.4053400906       13.7560056634       34.6960103113
  C         4.5781375153        8.8863006260       12.8132689721
  N         4.2344965715        7.5923556896       12.6355652790
  O         3.5676522016        5.7007706331       13.7438098664
  H         6.4173378766        8.7750670290       29.6425507739
  H         5.1426891949        7.8562960811       28.7692952864
  C         5.1861243603        7.6579573503       30.9727278905
  H        -6.2646762131        8.8038422356       25.6993808732
  H        -7.1319846083        9.1314339651       27.1089178657
  C        -7.5046959816       10.5539234466       25.4451462013
  C        -2.3451803378       16.6108360641       35.0521534468
  S         5.0348477163        9.7964584248       11.3683392526
  C         4.3649512386        6.9339109029       11.2848119317
  H         5.6978292115        8.1999580046       31.7381526318
  H         4.1531115905        7.5249479062       31.3510103521
  C         5.8074281874        6.2913518395       30.9284179325
  H        -6.9792812539       10.7045480810       24.5521885306
  H        -7.5443563937       11.5240285290       25.9367977787
  C        -8.8759705449        9.9488358859       25.0185634855
  H        -2.0689172362       17.6230971523       34.9978668935
  C        -2.8250962674       16.2886943390       36.2763016954
  H         4.8403423827        7.4864612377       10.5511133926
  H         4.8874061631        6.0267524814       11.3418935751
  C         2.8923247810        6.5955691077       10.7545981021
  H         5.6000025422        5.9463947356       29.9275095639
  H         5.4177142727        5.6573298366       31.6538482026
  C         7.3075609580        6.4105724747       31.0711243800
  H        -9.3556316420       10.4852323822       24.2476551050
  H        -8.6571888021        8.8795481803       24.6999929225
  C        -9.9329708808        9.9498127621       26.1000760390
  S        -3.3091738645       14.7349579459       36.9260982024
  C        -2.7856755193       17.3729302202       37.2989538861
  H         2.8651779065        6.2243828426        9.6945135565
  H         2.3940290659        5.8152536474       11.3925908419
  H         2.1755978603        7.4290273075       10.7817182682
  H         7.8382091537        5.5108512172       30.6625492310
  H         7.5639788370        6.5926790399       32.0992356626
  H         7.8065159118        7.1629069198       30.5617891592
  H       -10.2652649630       10.9929510528       26.2867592895
  H        -9.6218752677        9.4376804601       26.9365072170
  H       -10.8411187766        9.4356583896       25.7469452385
  C        -3.5782597866       15.5796976796       38.4267516821
  N        -3.2119969608       16.9351670837       38.4589247231
  O        -2.5679426510       18.5636481445       37.0508077162
  S        -4.1565320227       14.8126168198       39.9664314139
  C        -3.4524103929       17.8290404332       39.6237590516
  H        -3.6104365207       18.9127538940       39.4154058751
  H        -4.4812943482       17.5990729547       39.9155669746
  C        -2.5000583180       17.5203522031       40.8231657496
  H        -2.0113981529       18.4341537163       41.1494929954
  H        -3.1100468684       17.1407110202       41.6495817802
  H        -1.7551913189       16.7870012862       40.4674141885
