352
i=
  H         4.7185142187        1.8542840688       12.1201241997
  C         3.7930246404        2.3977668968       12.3230218720
  H         4.1258056847        3.5090237032       12.4918533571
  C         2.8722201915        2.2182772975       11.0388795383
  C         3.0223596806        1.9593067562       13.4992006894
  C         3.5799215184        2.4738689467        9.6963388139
  H         2.1266935978        3.0508534362       11.1538983736
  H         2.3565674002        1.2858161770       11.0688304695
  H         2.4717431148        1.0010538549       13.4275585091
  H         2.3260063901        2.7539363908       13.7672225357
  H         3.7454111950        1.7734124999       14.3089222799
  C         4.4887996752        1.2883757240        9.2633414923
  H         2.8805929029        2.5823568344        8.8282769349
  H         4.1668796252        3.2937319275        9.8955098332
  C         5.3624866425        1.6573040552        8.0451366100
  H         3.9185939216        0.3703485168        8.9395408150
  H         4.9411660906        0.8852050642       10.1963560755
  C         6.4559570946        2.5920553107        8.3087825389
  H         4.7058150357        1.9864252695        7.2403704870
  H         5.6821983360        0.6931040615        7.6700834482
  C         7.6695043116        1.8935711102        8.9256732251
  H         6.7042640871        3.1708555423        7.4073327061
  H         6.1571365544        3.2827698009        9.0985515523
  C         8.9924675314        2.7348638073        9.2331511064
  H         7.9846129423        1.0174759056        8.3009395331
  H         7.2964468957        1.4916686612        9.8240845939
  C         8.6646976861        4.1084166695        9.8736371161
  C         9.4369999231        3.4273966870        7.9876055732
  C        10.0227564150        1.9591844485        9.9704588394
  C         8.9894089686        5.1423439467        9.0712969929
  C         8.3722921650        4.5024814609       11.1271521924
  C         9.4877304704        4.7867572604        7.8304209644
  C         9.9237063963        2.7505253708        6.8246940808
  H         9.5486004400        1.4520488829       10.8828190130
  H        10.3365831021        1.0367297483        9.3693311703
  C        11.2269923797        2.8935893437       10.2419002170
  S         8.7581656086        6.6653589347        9.7287789148
  C         8.2844288666        5.8976999100       11.2360598714
  H         8.0907563482        3.7045292239       11.8733731892
  C         9.9747620375        5.3798480700        6.7117184184
  H         9.8580678516        1.6197082482        6.7589331517
  C        10.4521620150        3.3871880639        5.7265161471
  H        11.0278678786        3.9070704249       10.6439376222
  H        11.7689525528        3.0407899492        9.2792225337
  C        12.2681512357        2.2184925959       11.0687696935
  C         7.8449621164        6.6168577391       12.4894293184
  C        10.4788610806        4.7196881066        5.5664908173
  H        10.0002382423        6.4338530197        6.5964322600
  C        10.9657619117        2.9592599547        4.4987803592
  H        13.3245100635        2.5338286970       10.7746576873
  H        12.1385432980        1.0938151966       11.0337520585
  C        11.9619105263        2.6568012158       12.4490191124
  C         7.7983196350        7.9687706200       12.7405076623
  C         7.3451867869        5.8197361177       13.6385865554
  C        10.8918558798        5.3572817119        4.2486593885
  C        11.2409063894        4.0004449984        3.6426000382
  S        11.2593520919        1.4705842641        3.7861042205
  H        12.5157267999        3.5800763036       12.6378741335
  H        10.9039755768        2.9455892955       12.5729479991
  C        12.2144706712        1.6027737846       13.5434158768
  N         8.0758542463        8.9453027968       11.7704015738
  C         7.4971449681        8.6094529111       14.0031012096
  C         6.9967876112        6.4258922996       14.8633084359
  H         7.1942714161        4.7762459255       13.5074446708
  C        12.1100684035        6.3180492420        4.3304135230
  C         9.7114474125        6.0340715614        3.5800598893
  C        11.8166070848        3.5437761586        2.4219107884
  C        11.8095335743        2.1845412575        2.2843584206
  H        13.2069408646        1.2364831094       13.3800313806
  H        11.5615111305        0.7342121447       13.3257252158
  C        12.0155263715        2.2834165988       14.9090522950
  S         8.0077968832       10.4389118371       12.4060323728
  N         7.5212924288        9.9908956961       13.8981763918
  C         7.1055225513        7.8627260071       15.1301518877
  H         6.5386317858        5.9061184196       15.6615834572
  H        11.9842569611        7.3445281142        4.7875568554
  H        12.4612658640        6.4425289869        3.2895621841
  C        13.4050572225        5.6311181184        4.9256582761
  H         9.3601557021        6.8699369886        4.2251991172
  H         9.9623982817        6.5905605112        2.7215522648
  C         8.4695514647        5.2151532139        3.3418276747
  H        12.0828395397        4.2003775182        1.6778300776
  C        11.9313991040        1.4593636936        0.9771584414
  H        12.3344323494        3.2947089172       14.9001669453
  H        10.9331318935        2.2467401938       15.2118587712
  C        12.8852879051        1.5752211775       15.9352304251
  C         6.7561915855        8.4788022255       16.3364378711
  H        13.1954944442        4.7183554808        5.5648876383
  H        13.9385046894        5.2547279133        3.9947541180
  C        14.2993969422        6.7149922632        5.4891162789
  H         8.1550037339        4.7749166304        4.2524527256
  H         8.7802050781        4.3292308522        2.7779809119
  C         7.3628346744        6.0617964424        2.6653050240
  C        11.9475549696        0.0363098265        0.7573420425
  C        12.0535403689        2.2534250399       -0.2585900303
  H        13.9443981125        1.4748638473       15.5406284777
  H        12.4703159761        0.6021288386       16.0908127800
  C        13.0919871245        2.2835090054       17.2505821778
  H         6.7836965007        9.5301738722       16.2347032072
  C         6.6113541477        7.9944574804       17.5916773534
  H        13.6922193189        7.2721427436        6.1521042378
  H        14.6358320570        7.4440162780        4.6857393729
  C        15.4870024719        6.0887076197        6.3184383993
  H         7.1402121426        6.9771188290        3.1121600461
  H         7.8327786301        6.4568132441        1.7560516273
  C         6.1058457902        5.2203595187        2.3469047340
  N        11.6736545424       -0.9046322869        1.7558559570
  C        12.2010806935       -0.5523257307       -0.4297914617
  C        12.3731777440        1.6412711301       -1.4504907164
  H        11.8532668182        3.3188400983       -0.3673748699
  H        13.9239685440        1.8461140213       17.7795531298
  H        12.2271265164        2.2091841909       17.9704156086
  H        13.4092960831        3.3529778572       17.2057853707
  S         6.6369163734        6.3495058141       18.0879463845
  C         6.3000828057        8.9693970934       18.6719059156
  H        15.7848450646        6.7659241741        7.0912642990
  H        15.1278091849        5.2273416689        6.9066128218
  C        16.5217347078        5.7165559696        5.2985925296
  H         5.9332197665        4.5227862471        3.1586017558
  H         6.3649251554        4.7663252853        1.3868161668
  C         4.7624575123        5.9090368666        2.2430372606
  S        11.7382784842       -2.4187001138        1.1826153340
  N        12.2743054435       -1.9765809473       -0.3660734282
  C        12.5771278429        0.1915511082       -1.6052871275
  H        12.4697582807        2.2828218716       -2.3555781095
  C         6.2563289417        6.9921413600       19.6803136769
  N         6.1644787843        8.3298562418       19.8204549452
  O         6.3426844407       10.1451132223       18.5940642315
  H        16.1150539912        4.7050060783        4.8830032519
  H        16.6247424333        6.5292668169        4.6041504776
  C        17.8272385070        5.3477992418        5.9920959900
  H         4.0089530447        5.1181230473        2.2799925425
  H         4.6064108907        6.4362836774        3.1831119328
  C         4.6208391868        6.8240811926        1.0561487388
  C        13.0071749724       -0.4456039914       -2.8372591676
  S         5.7158755037        6.0668977139       21.0678127768
  C         6.0607410406        9.1090355179       21.0896753438
  H        17.6110503511        4.4717102987        6.6663014923
  H        18.5154162872        4.9117650508        5.2457212472
  C        18.6465993076        6.4532249462        6.6872878377
  H         4.1324371428        6.2974491331        0.1670328132
  H         5.6265428511        7.1016740094        0.6833471867
  C         3.9436844385        8.2187755646        1.3219520650
  H        12.5711620237       -1.4030022868       -2.9313276115
  C        13.6720790571        0.0515104582       -3.9406298119
  H         5.8678773625        8.4854626503       21.9489524152
  H         5.3914379404        9.9175572229       20.8827555750
  C         7.4630063727        9.7080159687       21.4343609514
  H        18.3860083154        6.5359281060        7.7318594188
  H        18.3723765075        7.3704757622        6.2673767512
  C        20.1338048304        6.1197248841        6.4099134904
  H         2.9553307713        8.1896455730        0.9370906010
  H         3.8821307419        8.2771091676        2.3825210398
  C         4.6839677113        9.4533561427        0.8176423201
  S        14.4777127197        1.4702450412       -4.1604538759
  C        13.7536453455       -0.8864073116       -5.1013849047
  H         7.3657037943       10.8310635777       21.4499395586
  H         8.2558870762        9.5497529165       20.6644685476
  H         7.7746564165        9.5481412883       22.4749534336
  H        20.7757684424        6.7153232857        7.1079483958
  H        20.4165515687        5.0690616823        6.5986133505
  H        20.4150892341        6.4762401748        5.4172606397
  H         5.0615382669        9.1931897899       -0.1549620587
  H         4.1627148344       10.4095485000        0.8200068439
  H         5.5228448179        9.5305932680        1.4433852370
  C        14.9039884587        0.9327783315       -5.8336639087
  N        14.5142649457       -0.3248994995       -6.0621313901
  O        13.2893138145       -2.0135889099       -5.1152325075
  S        15.7484221132        1.9308596778       -7.0052944175
  C        14.6366336772       -0.9496962037       -7.3716476462
  H        14.7013637134       -2.0479621561       -7.2178555398
  H        15.5759697431       -0.5799574711       -7.7731419794
  C        13.4076133634       -0.6069593906       -8.2055248754
  H        12.5269438245       -0.9985016199       -7.7604765104
  H        13.4163222980       -0.9656242461       -9.2415704749
  H        13.4032938478        0.4439309094       -8.1743095111
  H        -4.0366494550       14.5167984218       16.7407434930
  C        -3.4328188035       13.5993722757       16.7747091696
  H        -4.0381834907       12.8272195081       17.1370278991
  C        -2.3766459952       13.5957855859       17.8378453630
  C        -3.1172053949       13.4558483293       15.2498501530
  C        -3.0171015164       13.3825044439       19.2485759506
  H        -1.6930452042       12.7977138773       17.5729244793
  H        -1.8358373831       14.5387792695       17.8441108046
  H        -2.1587431893       12.9563719946       15.1035479660
  H        -3.8541944119       12.7379543823       14.8420281238
  H        -3.2755866762       14.3225526131       14.7139733475
  C        -1.9813503413       13.0309078447       20.2557138839
  H        -3.7113171022       12.5586761572       19.3012526802
  H        -3.5473641543       14.3019703569       19.6498153392
  C        -2.4269325456       13.1631550625       21.7372065524
  H        -1.7801351420       11.9197323805       20.0803036077
  H        -1.1605467481       13.5685925295       19.8901441615
  C        -1.3333045717       12.7977617427       22.6952588981
  H        -3.1699491094       12.4209280990       22.0033559089
  H        -2.7670461549       14.1880634677       21.8728826029
  C        -0.0864257467       13.6396113825       22.6684315084
  H        -1.8218430364       12.6588900283       23.6754081203
  H        -0.9949246495       11.7829942570       22.4338108559
  C         1.1383908141       12.9543421797       23.3556638039
  H         0.2535701354       13.9608901049       21.6907666054
  H        -0.3208693859       14.4926105823       23.2949107127
  C         1.5537563961       11.6331095730       22.6914389258
  C         0.7528627615       12.2673030812       24.6480604276
  C         2.4127086122       13.8087734587       23.3674040281
  C         1.4476252929       10.5691551151       23.5982718133
  C         1.9392554265       11.2328654532       21.4235243441
  C         0.9131779690       10.9506634196       24.8565538272
  C         0.2452327126       12.9087781559       25.8046666468
  H         2.5874115848       14.1757946652       22.3118134406
  H         2.2485991634       14.6570242725       24.0497302602
  C         3.7592936279       13.1449732699       23.8456540879
  S         2.0916018983        9.0785959505       22.9222048441
  C         2.1574596276        9.8782437681       21.3749023533
  H         2.0002276859       11.9929083290       20.6494425263
  C         0.6809984193       10.3207982583       26.0405069902
  H         0.3301089650       14.0510653880       25.8187456023
  C        -0.0059996447       12.3201047914       26.9722318670
  H         4.1815470798       12.4689628273       23.0293118003
  H         3.6414759528       12.4922087975       24.6695959135
  C         4.8514203416       14.1596023776       24.1918544774
  C         2.6215906349        9.1890771864       20.0909335744
  C         0.1125819623       10.9681919375       27.1309018200
  H         0.9338369686        9.2924450397       26.1198062705
  C        -0.4132898271       12.6868972656       28.2557923060
  H         5.7690520074       13.7817210843       24.7784599787
  H         4.5420376153       15.0045144736       24.8180343157
  C         5.4582137422       14.7531232941       22.8968718139
  C         2.5557796801        7.8103893457       19.8273518086
  C         3.1231784784       10.0659872857       18.9618416229
  C        -0.2405719687       10.3234504097       28.4776929904
  C        -0.5329551959       11.6262867853       29.1265031148
  S        -0.6531155312       14.2122955881       29.0560869264
  H         5.8302886527       15.7349076723       23.1689846069
  H         4.6097296546       14.9385868451       22.2248555738
  C         6.6152556676       13.9369561115       22.2451082354
  N         2.2932669883        6.8313943595       20.8029832159
  C         2.8592948913        7.2770416230       18.5901301274
  C         3.3585600945        9.4957708487       17.7366771948
  H         3.1941594453       11.1698598425       19.0180595229
  C         0.9337647387        9.5152225618       29.1538148297
  C        -1.4582128101        9.3866499364       28.3532525098
  C        -0.8685611947       12.0325646992       30.4036181319
  C        -1.0037195458       13.3795266883       30.5258112804
  H         7.4048885952       14.7178532615       22.1558687492
  H         7.1195307377       13.1447434607       22.8504166705
  C         6.2066317528       13.3730414229       20.8724744411
  S         2.4359119022        5.3660547529       20.1523177162
  N         2.7576556704        5.8385411831       18.6791194503
  C         3.0965087521        8.0739254663       17.4586795500
  H         3.6114805144       10.1246993088       16.9354349097
  H         1.1914277985        8.8178429870       28.3466335291
  H         0.7708248402        8.9456100155       30.0604988289
  C         2.1613965697       10.3713077378       29.4119240859
  H        -1.0821628604        8.5880817291       27.7328159772
  H        -1.7121687813        8.9500237880       29.3640098734
  C        -2.6739651724       10.0547535804       27.7326647909
  H        -1.0496352998       11.3373386855       31.2360515276
  C        -1.2989071630       14.0682430923       31.8364047462
  H         5.5137299409       14.0730734979       20.4498685429
  H         5.5806446183       12.5191387143       20.9405216372
  C         7.3626652990       13.2704579994       19.9211283519
  C         3.2623008776        7.3370357515       16.1800262277
  H         2.3790717945       11.0506343114       28.6110109982
  H         1.9124687750       11.0775921668       30.2500709858
  C         3.3243738427        9.5172586659       29.8782481888
  H        -2.4629593690       10.5725527712       26.8092808225
  H        -2.9797998473       10.9012088857       28.3212026232
  C        -3.8361679983        9.0419058058       27.4039162275
  C        -1.4403925516       15.5223440483       32.0159817613
  C        -1.5013713364       13.3037401854       33.0622230767
  H         8.1898475722       13.8533713105       20.4067461673
  H         7.7366841869       12.2694752984       19.9400230651
  C         7.0434931953       13.6327130886       18.5152753230
  H         3.0826709642        6.2048973626       16.1334488905
  C         3.5563484677        7.8209917715       14.9138493494
  H         3.7171978644        8.8714673777       29.0900790953
  H         2.9857876061        8.8566088583       30.7560949155
  C         4.4156019701       10.3949280007       30.4580560237
  H        -3.5897575741        8.5320476929       26.5467199134
  H        -4.0275845459        8.3706292073       28.2198054345
  C        -5.1082696515        9.7834374412       27.0622721592
  N        -1.0180997999       16.4117825760       31.0910881663
  C        -1.9012535858       16.0966072605       33.1844245677
  C        -1.7527307358       13.8891899417       34.2975372877
  H        -1.2948496411       12.2520218396       33.0118593355
  H         7.8537684830       14.2733387193       18.1963780605
  H         6.9044898164       12.7552892395       17.8390604074
  H         6.1633195429       14.2646210129       18.3068353041
  S         4.1393852332        9.4578822750       14.4869236931
  C         3.6691555084        6.8623992342       13.7990646976
  H         4.4140620658       11.3047943419       29.8697360940
  H         4.1451005410       10.7435290535       31.4339199029
  C         5.7650303210        9.7140010143       30.5517045323
  H        -4.9921601430       10.8016424324       27.3966292847
  H        -5.9109278303        9.4232378076       27.6597847695
  C        -5.4407045016        9.9669713277       25.5990610491
  S        -1.0798235359       17.8675568652       31.8175156270
  N        -1.9420507103       17.5044225138       33.1564887395
  C        -2.1254604552       15.3264964518       34.3123133552
  H        -1.8516917654       13.2201925334       35.1565574134
  C         4.0093464225        8.8478368987       12.8127073942
  N         4.0794601928        7.5009754400       12.6969300485
  O         3.6320411233        5.6243708717       13.9619799115
  H         6.4318377695       10.4098267728       30.9934850942
  H         6.3028359790        9.6391200784       29.6394306068
  C         5.8580997772        8.3901103151       31.3267036067
  H        -4.6064609271       10.4368102292       25.0909500984
  H        -5.3704119460        8.9524796203       25.2256375418
  C        -6.7360959978       10.6414663595       25.4315908675
  C        -2.4060595849       15.9310731573       35.5528083071
  S         4.5139680823        9.6600309919       11.3691404875
  C         4.3534012272        6.7992005285       11.4501657372
  H         6.6574436525        8.5174280520       32.0772763029
  H         4.8909136606        8.1585316699       31.7318650438
  C         6.4085495920        7.3093805112       30.4199622934
  H        -6.6614757304       10.9394723870       24.3867920154
  H        -6.8524263939       11.5182164226       26.0672068693
  C        -7.8816511277        9.6356789485       25.5502209762
  H        -2.1287050893       16.9932662974       35.5433060131
  C        -3.0653103452       15.5392168697       36.6534970924
  H         5.3081228335        6.9790717492       10.8743974218
  H         4.4128235522        5.7449150469       11.8633750132
  C         3.1306515776        6.8388100405       10.5600306570
  H         7.3290035404        7.6236132906       29.9763897990
  H         5.7144488879        7.1475036424       29.5876961957
  C         6.5884974306        5.9953344272       31.0936835982
  H        -7.7944281522        9.0163424694       24.6504779192
  H        -7.6303138415        9.0080852110       26.3948358401
  C        -9.2607001231       10.2097580955       25.8426196777
  S        -3.8326820937       14.0570392163       36.9746889492
  C        -3.0647424681       16.4745952170       37.7984821378
  H         2.6983525727        7.8278282492       10.5359627903
  H         3.5436287516        6.6807614217        9.5594421123
  H         2.3979923237        6.0398185010       10.7859178929
  H         5.6992015859        5.7740624135       31.7420811742
  H         7.4457419772        6.0465685514       31.7852816536
  H         6.7824130997        5.2762689351       30.3054645746
  H        -9.6689748541       10.2252857803       24.8521863102
  H        -9.1867757837       11.1470117445       26.4475663372
  H        -9.8767714849        9.5285253662       26.4106465542
  C        -3.9607521509       14.6168696400       38.6790752206
  N        -3.7015833470       15.9141104615       38.9136209489
  O        -2.6575387309       17.6450564610       37.7344938967
  S        -4.4212865611       13.6380570073       40.1502550084
  C        -3.8880254175       16.6066283276       40.1547827357
  H        -3.9542016717       17.6512180251       40.0729483539
  H        -4.7775515608       16.1340428849       40.6300885148
  C        -2.5711147295       16.4102075272       40.9226950696
  H        -2.7049846116       15.4741431554       41.3724203671
  H        -1.6470903335       16.3900226692       40.2956655691
  H        -2.4881702281       17.1543617452       41.6870432242
