352
i=
  H         5.0589342707        1.5417037724       12.7737556512
  C         4.3896314457        2.3375289882       12.9635266337
  H         5.0214099515        3.2264901154       12.9803316783
  C         3.4572545465        2.8774872679       11.8071381605
  C         3.7868059421        2.2928670049       14.4033955067
  C         4.1416570097        3.1031096995       10.4275261494
  H         3.1092395131        3.8198557891       12.1684184030
  H         2.5422697444        2.2229316972       11.7106779859
  H         4.5986358847        2.2274287364       15.0597537019
  H         3.2798779748        1.3550350748       14.4592385171
  H         3.1493174487        3.1806771108       14.6747320803
  C         4.6879953947        1.7871656932        9.7209552620
  H         3.4462148459        3.6229123543        9.7400951685
  H         4.9494970768        3.7863111851       10.5932482778
  C         5.5074833634        2.1539471037        8.5224513030
  H         3.7663238720        1.2762491388        9.4714550014
  H         5.3530405463        1.1218366234       10.2706852405
  C         6.7931281388        2.8566256646        8.7414978252
  H         4.9015758895        2.8345508756        7.9021983499
  H         5.5295058561        1.2884841619        7.8797139225
  C         7.9756892426        2.1721155064        9.4389941677
  H         7.1681376969        3.0257089928        7.7234329495
  H         6.5328803978        3.7997670945        9.2890857981
  C         9.2048069622        3.1173140562        9.4562732743
  H         8.4377401967        1.3194640222        8.9413986098
  H         7.6723603340        2.0743745581       10.4597109059
  C         8.9447011760        4.4717064846       10.1807388804
  C         9.6691487642        3.8523798733        8.2074523933
  C        10.3397562199        2.3987102906       10.1739161246
  C         9.2118743866        5.5083943365        9.3449473619
  C         8.3774170552        4.9219026919       11.4012778234
  C         9.7709935017        5.1795412967        8.0868308366
  C         9.9847906633        3.1869284526        7.0112032441
  H        10.0548963265        2.1987296066       11.2232031418
  H        10.5117775625        1.4099837044        9.6346512432
  C        11.7216146257        3.1737327067       10.3083223627
  S         8.7099039664        7.0620966132       10.0366435526
  C         8.2631094258        6.2416740732       11.4974205090
  H         8.2133596768        4.0990297455       12.0958590896
  C        10.1299500709        5.7738093353        6.8756000929
  H        10.0167879160        2.0776602420        7.0430571010
  C        10.3700744785        3.7142622741        5.8130333204
  H        11.4454379365        4.1623956308       10.7141259281
  H        12.0508768827        3.3886017778        9.3041861533
  C        12.6730094586        2.4239310810       11.2086536819
  C         7.8134757466        6.8498480820       12.7493099081
  C        10.4360974761        5.0735561217        5.6582215332
  H        10.2887244515        6.8205595280        6.9404596010
  C        10.8414704207        3.2800403639        4.5768161794
  H        13.7186465666        2.5864113167       10.8709714124
  H        12.5560410211        1.3748480064       11.2381219313
  C        12.6321066910        2.9853149978       12.6541685252
  C         7.9252205627        8.2176247969       13.0554684685
  C         7.3638082377        5.9236491245       13.8564868900
  C        10.9247334676        5.7133828433        4.3753281099
  C        11.1592706167        4.3641205630        3.7403097893
  S        11.0304846843        1.7713306067        3.8050068158
  H        13.1235241145        3.9633537001       12.6006478524
  H        11.6656592550        3.2952758159       12.8779644793
  C        13.1266006712        1.9983543695       13.7650808636
  N         7.9949450135        9.1700780887       12.1247209377
  C         7.4983613680        8.7102065183       14.2534928506
  C         7.0375707266        6.4304120811       15.1152591835
  H         7.1592482472        4.8365710660       13.7121264893
  C        12.2206806623        6.4599528219        4.6156078891
  C         9.7924489372        6.5506155510        3.5949277197
  C        11.7098961419        3.9340239527        2.5189315351
  C        11.6616130623        2.5780501953        2.3504094176
  H        14.1978029589        1.6800905061       13.6155188138
  H        12.4461456185        1.1731237237       13.6729814826
  C        13.0948039402        2.6728259578       15.1402923873
  S         7.9425067684       10.6275471221       12.8178113789
  N         7.5762838883       10.1067226798       14.3174862803
  C         7.0960089762        7.9293264657       15.3507065741
  H         6.7611925744        5.8134189020       15.8816605571
  H        12.1130878644        7.1403600016        5.5014471949
  H        12.3789938901        7.0121364070        3.7262516831
  C        13.3429884407        5.5688604687        4.8684576323
  H         9.1111203257        7.0273158000        4.2895220950
  H        10.1589401762        7.4073287551        2.9382556964
  C         8.8920206959        5.6601326284        2.6882628641
  H        12.0964325235        4.6769271349        1.8808076715
  C        12.0113000029        1.8554315961        1.1294122403
  H        14.1256444442        2.8290416192       15.3293080911
  H        12.6491876724        3.6602840624       15.0709635386
  C        12.5842772246        1.7082422868       16.2723956757
  C         6.8732792807        8.5924418113       16.5291241514
  H        13.1525463906        5.0296416230        5.7965092285
  H        13.5223854447        4.7702719826        4.1561665584
  C        14.6400632640        6.2689636327        4.8451190230
  H         8.5412850376        4.7148121157        3.1581256572
  H         9.4209694618        5.3124629557        1.8068248959
  C         7.7708707195        6.5033796527        2.0966162374
  C        11.8656879825        0.4741038635        0.9012011591
  C        12.2402709985        2.6890608567       -0.0775663091
  H        13.2788174728        0.8934464073       16.3292051960
  H        11.5828946429        1.3274731089       16.0922588482
  C        12.6170744237        2.3137893812       17.6837750430
  H         7.0409359860        9.6803474527       16.5214576725
  C         6.6612725618        8.1067150478       17.8315057903
  H        14.5152109901        7.2482754146        5.4206795342
  H        15.0630976056        6.5187198984        3.8622745056
  C        15.6501642791        5.3784435407        5.4918136306
  H         7.3475438854        7.1441515617        2.9205238440
  H         8.1583005760        7.1487662714        1.3098373023
  C         6.5931554432        5.6500892537        1.5963037719
  N        11.4874876662       -0.5036516768        1.8662560747
  C        12.2107582534       -0.0779934424       -0.3225523490
  C        12.5038619148        2.2056746566       -1.3177893368
  H        12.3898541481        3.7802088133        0.0469751959
  H        12.3288141651        3.3131570662       17.7103068552
  H        13.6009626709        2.2869421344       18.0399890615
  H        11.8823634635        1.7991655485       18.3556959366
  S         6.5078565204        6.4489652846       18.4663759949
  C         6.4073288669        9.1070137586       18.8831184326
  H        15.3327633194        4.9609757079        6.4466395865
  H        15.7958528516        4.5690334075        4.6860441856
  C        16.9410710660        6.1990577597        5.6878868021
  H         5.9299726709        5.5931575824        2.4756387642
  H         6.9986529485        4.6612238871        1.4195672189
  C         5.8651012859        6.2967647297        0.4227172119
  S        11.7736261901       -2.0066940258        1.2289400614
  N        12.2158912403       -1.4634047974       -0.2600358212
  C        12.5727121603        0.7126199531       -1.4533956343
  H        12.7602136545        2.8991660324       -2.1365694209
  C         5.9858402025        7.1898291845       20.0259035073
  N         6.0207515615        8.5269042152       20.0570887053
  O         6.6400762451       10.3279194943       18.8097257717
  H        17.3509745781        6.2663150840        4.7216710642
  H        16.7474509995        7.2345197984        6.0516358595
  C        17.9336587091        5.5056108878        6.6220353135
  H         6.5973756044        6.6097671075       -0.3602018119
  H         5.2223593285        5.5645506804        0.0212163528
  C         5.1340517947        7.5750335081        0.8240958326
  C        12.8391255807        0.0181235612       -2.6946424377
  S         5.4827856308        6.3322901604       21.4960568773
  C         5.8472008547        9.4044811180       21.2286862800
  H        17.3951910528        5.3484419494        7.5360911174
  H        18.2264940149        4.5304947222        6.2893043744
  C        19.1027275614        6.3887455998        7.0111810654
  H         5.6456497776        8.2193844557        1.5459647331
  H         4.2901135413        7.1702514824        1.4591774133
  C         4.4274371191        8.3382825707       -0.3125640905
  H        12.5360332055       -1.0041959479       -2.6980927119
  C        13.3543513592        0.3238304301       -3.9197479372
  H         5.2973968037        8.9317453563       22.0533796004
  H         5.2648652045       10.2061315078       20.8824720093
  C         7.2417659463        9.8236954272       21.7785400280
  H        19.6635472055        5.8368044241        7.7740509027
  H        18.7759760036        7.4137244904        7.3121982122
  C        20.0343442382        6.5349405247        5.8214933419
  H         5.1904798804        8.7894741127       -0.8934361016
  H         3.8477797351        7.7051163526       -1.0382756291
  C         3.4256828962        9.4396844176        0.1319638785
  S        13.9647970381        1.7825662017       -4.4022100704
  C        13.5049397966       -0.7807433817       -4.9085352991
  H         7.5801360691        9.1032242108       22.5831396343
  H         7.1607436181       10.8072932567       22.2836586015
  H         8.0352767714        9.8741053046       21.0411233381
  H        20.0102307187        5.6197515913        5.2377224585
  H        19.5618153709        7.3370501626        5.1634771071
  H        21.0522960590        6.6766937911        6.1241513261
  H         4.0516700714       10.1988353334        0.4859704009
  H         2.6660508454        9.6790771308       -0.6382823289
  H         2.9453969873        8.9676038878        0.9929113323
  C        14.3974456116        1.0041450764       -5.9687150890
  N        14.1661648690       -0.3269386937       -5.9641142023
  O        13.2325343344       -1.9145532327       -4.6989675455
  S        15.3632698830        1.7229893134       -7.2771573790
  C        14.3348835538       -1.1955875388       -7.1236437862
  H        14.5717067062       -2.2028234202       -6.7750736138
  H        15.2213053003       -0.8803103132       -7.7834320780
  C        13.0927785650       -1.0861242886       -8.0801079614
  H        12.3759359227       -1.9099535210       -8.0590292650
  H        13.2585642141       -0.9455600772       -9.1452416152
  H        12.4787604186       -0.3016114346       -7.6898294609
  H        -1.4160169914       12.9745242356       15.4220536087
  C        -2.0525141944       13.7869720010       15.7155254738
  H        -1.7878078022       14.7030214422       15.1685161391
  C        -1.9034888031       14.2222918093       17.1401244744
  C        -3.4175920961       13.2082215551       15.3532837055
  C        -2.0233615650       13.0267529927       18.1685657387
  H        -0.8568791159       14.4990126274       17.1667025302
  H        -2.3778206413       15.1423033530       17.3440975124
  H        -3.5678359489       12.1843888140       15.7388014638
  H        -4.1085597931       13.9128460729       15.7010860502
  H        -3.6091575345       13.2315821403       14.2537739812
  C        -1.1313432917       13.2001701508       19.4100070432
  H        -1.6455843884       12.1758584242       17.6160745397
  H        -3.0372506641       12.9296940746       18.4907229994
  C        -1.9131413878       13.1286977454       20.7471358593
  H        -0.4304275565       12.3245662239       19.3100482689
  H        -0.5752524709       14.2001278446       19.3331796003
  C        -1.1158037539       12.8063364322       21.9345263446
  H        -2.7327605396       12.5004438993       20.6129074321
  H        -2.2897498043       14.1437728621       20.9229636269
  C         0.0096062561       13.7131359587       22.2693809300
  H        -1.7623627551       12.7983432290       22.7429451030
  H        -0.8131743572       11.8277439445       21.8309327899
  C         1.2013457998       13.1306110660       23.0285217887
  H         0.4985650934       14.1574911504       21.3835173325
  H        -0.2835173780       14.5948812937       22.6896727547
  C         1.6476636022       11.7557101255       22.3884975259
  C         0.7900547159       12.4118437932       24.2901567245
  C         2.3165972079       14.1525715310       23.2558377889
  C         1.4643306442       10.6429033510       23.2439729880
  C         2.2126124428       11.3306599619       21.1885298319
  C         0.8999005398       11.0306044556       24.4290631924
  C         0.2003171531       13.0348599789       25.4633177062
  H         2.4010221704       14.6356220487       22.3256958704
  H         1.8476809999       14.7559903127       24.0495796995
  C         3.6419566868       13.4939984237       23.8017251938
  S         1.9242872987        9.1158368487       22.4596068979
  C         2.4259523239        9.9811316690       21.0801484949
  H         2.4487368427       12.1345191494       20.4378996605
  C         0.5053956097       10.4525235753       25.6201430587
  H         0.0873388366       14.1600412349       25.4005497288
  C         0.0307626129       12.3989965372       26.6277317310
  H         3.7954731247       12.6588474736       23.0939267974
  H         3.3174994343       13.0011848252       24.7102238768
  C         4.7889732191       14.4312852913       24.2273735243
  C         2.6912511259        9.2753548370       19.7840760668
  C         0.1505204723       11.0718721355       26.7647877556
  H         0.4828281509        9.3492942995       25.7129287226
  C        -0.3249191719       12.7421040260       27.9569721580
  H         5.5841028772       13.9472276504       24.8099642329
  H         4.3602302125       15.1757668634       24.8893518295
  C         5.2971125590       15.1708605699       23.0330868760
  C         2.7094879239        7.9084410020       19.4318299794
  C         3.0660523851       10.1088254149       18.6182795345
  C        -0.1177806886       10.3450844001       28.0363737031
  C        -0.3755445479       11.6589911599       28.7718631546
  S        -0.7220989226       14.2438613756       28.8193568022
  H         5.9505959841       15.9653218581       23.3863545229
  H         4.4890686538       15.6478346442       22.5453905568
  C         5.9902632052       14.1876645123       22.1001205592
  N         2.3215491687        6.9718609227       20.3556063617
  C         3.0016772346        7.3732623492       18.2198107133
  C         3.3862471731        9.6037502043       17.3488121014
  H         3.1834132639       11.1490827974       18.6900187441
  C         1.0745969448        9.4585774691       28.5329050164
  C        -1.3376536978        9.4494128100       28.1186525730
  C        -0.7974571467       12.0111723282       30.0518433325
  C        -0.9400602915       13.3678367248       30.2714147384
  H         6.9867572974       14.5180031974       21.8351156705
  H         6.1865825439       13.2998214596       22.6714207875
  C         5.3279171167       13.8947185251       20.8032584650
  S         2.4399895463        5.4948659173       19.7085483058
  N         2.9435457830        5.9570025989       18.2862141264
  C         3.3160911713        8.1599301324       17.0899778192
  H         3.6536679787       10.3748381831       16.6367098388
  H         1.3399592274        8.8657540484       27.7232034878
  H         0.6826863924        8.7508680521       29.2377383434
  C         2.3046127998       10.3190224265       29.0235031570
  H        -1.3041586214        8.5113840763       27.5887959284
  H        -1.4430506129        9.1963996400       29.1704275567
  C        -2.6219195672       10.0498764903       27.6528682971
  H        -0.9014702011       11.1918337447       30.7268384312
  C        -1.3259601138       14.0335723636       31.5839837138
  H         5.1653333576       14.8331754276       20.2765786551
  H         4.3390592393       13.4628505635       21.0151306707
  C         6.1267469956       12.9277265214       19.9367242474
  C         3.4918782002        7.6057626551       15.8135634065
  H         2.7954349040       10.8021441264       28.1932448226
  H         2.0223559364       11.0603765957       29.7790669986
  C         3.2270179873        9.3949886775       29.7725864973
  H        -2.4289091331       10.4973857965       26.7130388460
  H        -2.9094929329       10.8489620559       28.3632659453
  C        -3.6483837007        8.9742805769       27.4358315021
  C        -1.4949239672       15.4452939301       31.7738257467
  C        -1.4884996054       13.1443099528       32.7892201468
  H         6.5981985744       12.1877897817       20.5802425335
  H         5.3467421079       12.5236059362       19.3882578970
  C         7.1738155056       13.5757724084       19.1499538385
  H         3.6445340994        6.5478108118       15.9282553167
  C         3.7648684329        8.0540044052       14.5441427048
  H         3.5891365857        8.6823282200       29.0335228785
  H         2.6798966803        8.8260032263       30.5230576702
  C         4.3968536979       10.0967655045       30.3961018307
  H        -3.3874866114        8.4351554379       26.5429792231
  H        -3.5749389642        8.2987928708       28.3188303083
  C        -5.0266560062        9.4441003543       27.2355044584
  N        -1.3439520130       16.4215186697       30.7556665080
  C        -1.7717108453       16.0039891312       33.0099304135
  C        -1.9378847983       13.6792617970       33.9760018376
  H        -1.4936288085       12.1207104178       32.6991282400
  H         7.9203174099       13.8989406072       19.7078026809
  H         7.5998902562       12.8699603119       18.4376749423
  H         6.8688280324       14.5469640802       18.6671570307
  S         4.0800242787        9.6157858482       14.1638655705
  C         3.8711143602        7.0119716698       13.4988007116
  H         4.5352807870       11.0148368887       29.8687982822
  H         4.1893401665       10.3261861224       31.4567407020
  C         5.7684264589        9.3094513439       30.3225830613
  H        -5.2146545780       10.4274539916       27.7691173265
  H        -5.7890551385        8.7592172884       27.7014263822
  C        -5.3822863387        9.7644776622       25.7970877243
  S        -1.2905837158       17.8763012585       31.5147186795
  N        -1.8177278479       17.3893006141       32.9703914842
  C        -2.0642410209       15.1609225680       34.1406348161
  H        -1.9517602761       13.0403194778       34.8361463716
  C         4.3775036457        8.9356648523       12.5543289746
  N         4.2910481916        7.6037788812       12.3634759273
  O         3.4307063630        5.8636288104       13.7122617603
  H         6.5346914413       10.0515849647       30.5770067490
  H         5.8824747613        9.0542539399       29.2773088216
  C         5.7629733061        7.9915295881       31.1597332679
  H        -4.5114924603       10.2221717984       25.2387874883
  H        -5.5108744907        8.8168805066       25.2203008911
  C        -6.6250027733       10.5943671884       25.5737064127
  C        -2.4934704424       15.7813538580       35.3601312750
  S         4.7905281898        9.8063557161       11.1269893342
  C         4.2226231897        6.8609178066       11.0413362689
  H         6.0701863275        8.1286319498       32.1863853561
  H         4.6923520289        7.6723082056       31.2163505402
  C         6.5164888694        6.8942944607       30.4886811572
  H        -6.8110373156       10.9263792289       24.4892109248
  H        -6.3709216431       11.4569268503       26.1270793491
  C        -7.9167699697        9.9572255587       26.1954707896
  H        -2.1666219262       16.8195108095       35.3985179502
  C        -3.0076284335       15.2603381021       36.5388343180
  H         5.0869997572        7.1049738144       10.2842140997
  H         4.4504290082        5.8137423713       11.2812411407
  C         2.8366218072        6.8853289593       10.4907917891
  H         7.4482029049        7.1446401551       30.0679659259
  H         5.9040315677        6.4947359606       29.7167192627
  C         6.8000906135        5.7770566290       31.4632416813
  H        -7.7927255914        8.8283751638       26.2900270566
  H        -8.0298309697       10.2756209313       27.2667037235
  C        -9.1390885410       10.3037501489       25.3616938796
  S        -3.5546698709       13.6575397920       36.7885243001
  C        -3.1342865692       16.1999869302       37.7174374414
  H         2.6771371184        5.8687187600       10.0806765717
  H         2.0903486149        7.1038967892       11.2272566638
  H         2.5783562583        7.5215649507        9.6856203109
  H         7.7888827479        6.0194766648       31.8044920616
  H         6.9694224229        4.8767543983       30.8377396230
  H         6.0135819292        5.6503112841       32.1037967569
  H        -9.3469724223        9.6153676820       24.5750204769
  H        -9.0407502599       11.3472237519       24.9701851388
  H       -10.0953078588       10.2596949666       25.8683364523
  C        -3.8795261582       14.1970403369       38.4575610514
  N        -3.6434729899       15.5262083851       38.7688447240
  O        -2.6428062099       17.3329275743       37.6810899600
  S        -4.5626996468       13.1713920753       39.6873971420
  C        -3.6669302369       16.1991027708       40.0508523480
  H        -3.7330895297       17.3048561951       39.8857527179
  H        -4.6054623150       15.8054637942       40.4367766910
  C        -2.4895416285       15.6177578051       40.9300613388
  H        -2.2577858736       16.1836093933       41.8761482896
  H        -2.6175760294       14.5738155702       41.2569476838
  H        -1.5397474769       15.6928542765       40.4606291242
