352
i=
  H         5.5557084912        1.9374002262       13.2091259099
  C         4.8537960683        2.7537494857       13.3857450802
  H         5.2927096026        3.7741592110       13.2636539413
  C         3.6428072020        2.7164941510       12.5216629812
  C         4.5385555508        2.8714628448       14.8993438128
  C         4.0369241853        2.9416512285       11.0800530191
  H         2.9553391921        3.5623642921       12.6963095095
  H         3.1897878965        1.7551201060       12.6801898702
  H         4.1149999386        1.9570481318       15.3156557764
  H         3.9465948607        3.7293399996       15.1505746629
  H         5.4137627965        3.0485760581       15.5058002885
  C         4.8667622350        1.7482972427       10.5494519615
  H         3.0768889916        3.0493399783       10.5175097969
  H         4.5509493135        3.7914566324       10.9082188531
  C         5.2692994141        1.8086530924        9.1263733758
  H         4.4057641131        0.7982694183       10.8598069649
  H         5.8063073401        1.7261172947       11.1109506256
  C         6.4903090670        2.7204556193        8.8885704115
  H         4.3938793644        2.1508178788        8.6008944269
  H         5.4272102966        0.8499281141        8.6985459805
  C         7.8590690518        2.0333330156        9.1337299367
  H         6.4584795568        3.2173694577        7.9249308501
  H         6.3218888998        3.5417575751        9.5251248363
  C         9.1331559913        2.9000093167        9.3823318391
  H         8.1011291928        1.2713550030        8.3493786093
  H         7.6728845524        1.4083722051       10.0106891884
  C         8.8293945184        4.2510992583       10.1310814700
  C         9.5809459118        3.6223968392        8.1420441116
  C        10.2461689476        2.0339327490        9.9662106901
  C         8.9709186536        5.3598189596        9.3104248787
  C         8.3006891415        4.5562560384       11.4071264505
  C         9.4422160198        5.0223121690        8.0480643199
  C         9.9617683247        2.9824088475        6.9323010510
  H         9.9238016885        1.3826578295       10.7859052181
  H        10.6389633356        1.4143362233        9.1335019576
  C        11.4219650021        2.8535871266       10.4843247931
  S         8.4725397746        6.7972360645       10.0438328499
  C         8.1810691428        5.9105157512       11.5152075153
  H         8.2749899127        3.7865280735       12.1274437332
  C         9.8391742652        5.6501106472        6.8917236520
  H         9.8852472079        1.9531091223        6.8725465935
  C        10.2950287596        3.6809248619        5.8282661227
  H        11.0793913413        3.7802220678       10.9762079704
  H        11.9897703985        3.1073897714        9.6659114308
  C        12.3172413121        2.3055013988       11.6004886154
  C         7.7986202464        6.5580234375       12.8154789571
  C        10.2850266093        5.0400425377        5.7041563445
  H         9.9215216636        6.6972376771        6.8034588856
  C        10.7533781210        3.2574680776        4.6182544375
  H        13.1650657513        3.0383837887       11.6545816927
  H        12.7084822234        1.2946165994       11.3071301485
  C        11.5696185843        2.2824755168       12.9146579925
  C         7.8388900809        7.9663866591       13.1332541399
  C         7.3998906704        5.6825801575       13.9592764584
  C        10.7383039002        5.7254010127        4.4627837619
  C        11.0162888285        4.3401320993        3.7987702675
  S        10.9929305851        1.6846367003        3.9117261378
  H        11.4437858517        3.2585969907       13.2787903347
  H        10.6097301566        1.8185424853       12.7765475606
  C        12.2652835413        1.5821684791       14.1219732077
  N         8.1901069600        8.9264266594       12.2160793066
  C         7.5922387010        8.4521544686       14.3805410461
  C         7.0963204593        6.2078628689       15.2262813849
  H         7.0930249243        4.5985259075       13.7466521890
  C        11.9382022891        6.6403861932        4.7752962218
  C         9.5599761859        6.5161818603        3.8635639363
  C        11.4521197704        3.9025103219        2.5315121985
  C        11.4333450454        2.5275406286        2.4127550733
  H        13.0633419139        1.0083247541       13.7795001627
  H        11.5521989072        0.8251876134       14.4444955492
  C        12.7553754848        2.5572371670       15.2624645536
  S         8.4300575155       10.3483553226       13.0466117567
  N         7.9566698575        9.8182586291       14.4776466189
  C         7.2370863804        7.6703199916       15.5013574425
  H         6.7838616606        5.5820120937       15.9973817627
  H        11.7023848815        7.4601714654        5.5099119598
  H        12.4291027426        7.0885270217        3.8919946396
  C        13.0041551185        5.8929467043        5.5029912502
  H         9.0249443265        7.0172457365        4.6658462442
  H         9.7706529292        7.1944062862        3.0724283703
  C         8.5002421102        5.6825747471        3.2508005075
  H        11.7828092478        4.5954698173        1.7144290856
  C        11.6179736977        1.7942856547        1.1536733020
  H        13.7440161731        2.8838587538       15.0997665567
  H        12.1658564203        3.4572975551       15.2759477874
  C        12.6521352070        2.0857397194       16.6834962337
  C         7.0865576931        8.2573623187       16.7545312396
  H        12.7404985579        5.5585506416        6.5621197715
  H        13.3150468226        4.9020333288        5.0434655645
  C        14.3126830065        6.7092604357        5.6350642811
  H         8.1241348646        4.9849290364        3.9833219826
  H         8.8914491773        5.1395368661        2.3785986195
  C         7.3546728127        6.6793141714        2.7610826723
  C        11.7101276933        0.3987053704        1.0846938160
  C        11.6464237625        2.5691150116       -0.1371139171
  H        13.2370261066        1.1972406368       16.8878624483
  H        11.6526174400        2.0226779272       16.9319062102
  C        13.2338662174        3.2201753145       17.6200330235
  H         7.1988920092        9.2673096543       16.6926059223
  C         6.8410990832        7.8910841528       18.0258217655
  H        14.1003521238        7.5955098211        6.0842638380
  H        14.7249298421        6.9250559054        4.6169016831
  C        15.3279053530        5.8779464552        6.4564079976
  H         7.1319692818        7.5095034981        3.4231394455
  H         7.7907740932        7.2126692627        1.9291484038
  C         6.0555481013        5.9150400694        2.2696275253
  N        11.7316697434       -0.4869468828        2.1303762105
  C        11.9154496764       -0.3004064126       -0.1352348403
  C        11.9758056673        1.8680707928       -1.3068171131
  H        11.6728914512        3.6513076789       -0.2334541087
  H        14.0262181216        3.6689758202       17.0831848243
  H        13.6406292203        2.6999003257       18.4925502548
  H        12.5252391332        4.0230979267       17.8500824467
  S         6.3143910309        6.2456807853       18.5352982679
  C         6.8197879283        8.9436607428       19.0916840078
  H        15.7160215279        6.5804309724        7.1614776972
  H        14.7365139672        5.0673593413        6.9468856867
  C        16.4707657503        5.1907196567        5.7247146729
  H         5.9018949782        5.0253292407        2.8901517487
  H         6.2467151610        5.5234171054        1.2626890816
  C         4.8351846080        6.8222093554        2.2098282126
  S        11.8817556387       -1.9928696813        1.6452765090
  N        12.0499723775       -1.6961380594        0.0486742102
  C        12.1579940455        0.3809509895       -1.3287559114
  H        12.0310371104        2.5071384100       -2.1587850883
  C         6.0977920716        6.9985176401       20.1180384148
  N         6.2993546178        8.3360103160       20.2123631141
  O         7.1512193027       10.1060459769       18.9636311084
  H        16.2379432770        4.0782712357        5.6410683271
  H        16.5756624030        5.5110012130        4.7619849869
  C        17.7798842635        5.2307365310        6.4924775814
  H         3.8955094085        6.3088788976        2.0709634502
  H         4.7001267895        7.3185593600        3.1626651261
  C         4.9345379664        7.6963844848        1.0043999310
  C        12.5125448384       -0.4106488206       -2.4388409002
  S         5.8077444589        6.1226026765       21.5526824953
  C         6.2357970726        9.1512113372       21.4734112660
  H        17.4735469906        4.9245876185        7.5105821592
  H        18.4556946702        4.3597454576        6.2596313351
  C        18.6113504311        6.5289639685        6.5310411582
  H         4.6822907606        7.0793504946        0.0612531468
  H         6.0019764310        7.9722939525        0.8983404094
  C         3.9847810106        8.9510801876        1.0338636179
  H        12.4335523061       -1.5013973047       -2.3559019560
  C        13.0999914265       -0.0672404990       -3.6771971323
  H         5.3171771483        8.9684097466       21.9729073915
  H         6.1973931403       10.1840722373       21.1551289423
  C         7.5363771087        8.8808130160       22.2468566975
  H        18.1205800823        7.2201053580        7.2324278636
  H        18.4277160774        7.0454025803        5.5744330417
  C        20.1212049625        6.1852777300        6.8172168999
  H         4.4983092346        9.9221731580        0.8233198775
  H         3.1575646115        8.8318686780        0.3127903159
  C         3.2157539425        9.1445568353        2.3493406444
  S        13.5634422012        1.4852638807       -4.2117879451
  C        13.3433414583       -1.1803828126       -4.6832043041
  H         7.9249945339        9.7701132825       22.6837267050
  H         8.1754981263        8.6671206336       21.4428937927
  H         7.4987067021        8.1799289606       23.0894755607
  H        20.1115699046        5.7604437640        7.7832630846
  H        20.6677386872        5.6227478563        6.1063216478
  H        20.7223162747        7.0565921025        6.9624582606
  H         3.8070894156        9.4841513506        3.1689278362
  H         2.4248329129        9.8927905294        2.2755539824
  H         2.6795610033        8.2431592931        2.5562440632
  C        14.0055587471        0.7241215600       -5.7593751151
  N        13.8984679463       -0.6127761636       -5.7908399424
  O        12.8472215284       -2.2954703794       -4.5785000554
  S        14.6963323357        1.6021722445       -7.1244646485
  C        14.1672184403       -1.4288868797       -6.9878239517
  H        14.4137713666       -2.4964671488       -6.8471601673
  H        15.1189449028       -1.0994374896       -7.4071714316
  C        12.9807682920       -1.2666272933       -7.9918457286
  H        13.3456401951       -1.4299362902       -9.0285177869
  H        12.4176020840       -0.3013329484       -7.9444240035
  H        12.1807677922       -1.9633122641       -7.7917470681
  H        -3.6643462035       14.5506306731       16.1755080115
  C        -3.2023038393       13.5208962245       16.1632124434
  H        -3.9488972468       12.8180897025       16.2881883704
  C        -2.2137560018       13.1754410056       17.2978072204
  C        -2.4875243571       13.2157241041       14.8713385990
  C        -2.8057956019       13.1241457050       18.7547187000
  H        -1.8178463065       12.1948734801       17.0176567435
  H        -1.3551748329       13.8283501132       17.3722195678
  H        -1.4141506141       12.9072284798       14.8053465111
  H        -3.0301294795       12.3509624830       14.3604321981
  H        -2.5905846699       14.0506072942       14.1819360110
  C        -1.7453348372       13.0241340314       19.7907999525
  H        -3.5848462556       12.3549167499       18.8463251915
  H        -3.3378215294       14.0342375960       19.1800418199
  C        -2.1459319449       12.8191677874       21.2514401715
  H        -1.1214081372       12.1570836569       19.3796693459
  H        -1.0809926311       13.8334458514       19.7947676152
  C        -1.1318456216       12.2851629833       22.2452348021
  H        -3.0001036540       12.1729255956       21.1389163777
  H        -2.5007076237       13.7111394860       21.7257171591
  C        -0.0773945595       13.3826249197       22.5505182949
  H        -1.6421298833       12.0392547739       23.1509901249
  H        -0.8161376178       11.3032467880       21.9151179528
  C         1.1639851138       12.8416868516       23.2183877066
  H         0.1376179627       13.8137708693       21.6220441197
  H        -0.3635735908       14.2240470851       23.0951630524
  C         1.6358142375       11.5542915244       22.5526104860
  C         0.8636295046       12.1474895180       24.5410203940
  C         2.3089639779       13.8968836427       23.2234949491
  C         1.5170749729       10.4461138393       23.4006269171
  C         2.2332041954       11.2260790705       21.3040774998
  C         1.0676216767       10.8301229992       24.6690347758
  C         0.3569632467       12.7987795141       25.7087303122
  H         2.3816908018       14.4138759636       22.2519215455
  H         1.9671324024       14.6582211771       23.9251504982
  C         3.6761673362       13.4735571967       23.5894745945
  S         1.8595423739        9.0050158561       22.5786702450
  C         2.3236410031        9.8760925857       21.1289887425
  H         2.5002981963       11.9639238828       20.5732665674
  C         0.6865141360       10.1907278890       25.7868852561
  H         0.2548446091       13.8130745502       25.6002307961
  C         0.0661401644       12.1570176200       26.8461605185
  H         4.3105091443       12.9668467991       22.8535212791
  H         3.6600939059       12.8877974651       24.4436826889
  C         4.5405569851       14.5699617569       24.0831242084
  C         2.8268541669        9.2138920938       19.8814405491
  C         0.1937110560       10.7818866245       26.9754603819
  H         0.8879947448        9.1276669098       25.8186974015
  C        -0.3855120639       12.5044305895       28.1068857823
  H         5.1777251178       14.0965468681       24.8762547553
  H         4.0195246265       15.4520265638       24.4498280663
  C         5.3580890648       15.1362976185       22.9020313359
  C         2.7472369685        7.8630756617       19.6097875650
  C         3.2609907038       10.1536954320       18.8061575778
  C        -0.1356663655       10.1174416830       28.2713200984
  C        -0.4925678815       11.3859682670       28.9630921329
  S        -0.6740630951       13.9912763368       28.8827285197
  H         5.6848577383       16.1220849162       23.1362669236
  H         4.7823799108       15.3073801944       22.0691094730
  C         6.5402382335       14.3267161447       22.5002833749
  N         2.3742163675        6.8691818081       20.4843495905
  C         3.0944274161        7.3879868222       18.3654857413
  C         3.7258987883        9.5861905439       17.6437720082
  H         3.4587342287       11.1591814256       19.0155984269
  C         1.0790245548        9.2952101024       28.9067319747
  C        -1.4561293092        9.2420916313       28.2526655972
  C        -0.8600085723       11.7862659233       30.2790282406
  C        -1.0359829633       13.1822170743       30.3484708253
  H         7.3433349334       15.0475081920       22.3485256680
  H         6.8000914054       13.7488653629       23.3882684078
  C         6.3906230520       13.5945383685       21.1997028276
  S         2.5224642486        5.4005522114       19.7056233868
  N         2.9688407824        5.9629059744       18.2642345943
  C         3.4948469589        8.1780552926       17.2705197485
  H         4.1076965719       10.3221470703       16.8900908636
  H         1.2705353008        8.4468590337       28.2770889751
  H         0.7524824093        8.9903233283       29.8530710058
  C         2.2832810544       10.2192367203       29.1701118769
  H        -1.2496758260        8.3598274445       27.6631272919
  H        -1.6399114623        8.9462783693       29.2669627180
  C        -2.6338277826        9.9216002450       27.6162696365
  H        -0.8404012587       11.0676381211       31.0786469181
  C        -1.3810988587       13.9413116930       31.6068536234
  H         5.3942134222       13.7746669346       20.7170796421
  H         6.4928679037       12.5843746967       21.5406772016
  C         7.5238159539       13.8584698367       20.2390610264
  C         3.7638852654        7.5861044933       15.9890547780
  H         2.6061528103       10.6249228365       28.2419081512
  H         1.9845858715       11.0984450966       29.8232119394
  C         3.3972693868        9.4241001973       29.7691073089
  H        -2.3571996364       10.3030616726       26.6194737681
  H        -2.8608838008       10.7987077900       28.1712329100
  C        -3.9040548310        9.0192952302       27.5500617009
  C        -1.3557643644       15.3508295981       31.7836493787
  C        -1.6986020126       13.1881298165       32.8127098938
  H         7.5891407711       14.9419251367       20.1793774779
  H         8.4726514721       13.5757488223       20.6315024756
  C         7.4774934547       13.5135114430       18.7316770257
  H         3.4500713747        6.5333409155       15.8717854249
  C         4.0712728688        8.1405848128       14.7418585833
  H         3.9259519747        8.8918816861       28.9747008065
  H         2.8588022499        8.6492694206       30.4239140528
  C         4.3626874297       10.3069900866       30.6086198117
  H        -3.8688947655        8.3683923562       26.7518391224
  H        -3.8578220249        8.4051657136       28.3778918483
  C        -5.2132465358        9.8190386968       27.4192245615
  N        -1.1700576148       16.3245181497       30.8060066486
  C        -1.6967137144       15.9862681141       32.9945735104
  C        -1.9534548476       13.8179232102       34.0108832522
  H        -1.6800823286       12.1246069295       32.7815196647
  H         7.4383050835       14.4009071705       18.1322631848
  H         8.3001780198       12.8790785065       18.4268043894
  H         6.6322204790       12.9336493856       18.5103313077
  S         4.5994505964        9.7419568628       14.2732103662
  C         4.0119334333        7.2200442822       13.5486512355
  H         4.3498844002       11.3199406361       30.1133656936
  H         3.9775820854       10.4529674131       31.6499147473
  C         5.8382641409        9.7552684355       30.5896260331
  H        -5.2268552092       10.5817989844       28.2058255918
  H        -6.0705336308        9.1980815522       27.6910729496
  C        -5.3836213563       10.4323732389       26.0996121230
  S        -1.0714004462       17.7886551127       31.4292033160
  N        -1.5038048247       17.3865066762       32.9608848322
  C        -2.0039971139       15.3109373895       34.1654281024
  H        -1.9989347688       13.2085282479       34.8643817319
  C         4.7824777040        9.1275540626       12.5870967886
  N         4.4519728952        7.8133989600       12.4070589843
  O         3.6816391777        6.0399116552       13.5461849424
  H         6.4344248837       10.3577865279       31.2077896768
  H         6.2102480166        9.9963621927       29.6116660962
  C         5.8198582238        8.2644211620       30.8837509752
  H        -4.7607275755       11.3210228755       26.0261598512
  H        -4.9759494501        9.7515726470       25.3485445916
  C        -6.7911476738       10.8745060980       25.8277276724
  C        -2.1912105355       16.0484949837       35.3924969584
  S         5.3120339187       10.0899283006       11.1872689112
  C         4.2252191774        7.1150247823       11.1572374005
  H         5.5188734154        8.1198689896       31.9412076709
  H         5.0487367332        7.8463223010       30.2167652512
  C         7.1007135982        7.5588645839       30.6565613711
  H        -6.8170664957       11.3702431434       24.8297966457
  H        -6.9989841447       11.6826287933       26.4934219884
  C        -7.8182669517        9.7581589883       25.7494073112
  H        -2.1240162192       17.1369469927       35.3478066189
  C        -2.4775771705       15.6084528213       36.7019705491
  H         4.8224646466        7.5186081427       10.3651094151
  H         4.5410676289        6.0356651053       11.3190781044
  C         2.8363015418        7.1185198017       10.5963481141
  H         7.7660956266        7.9048104126       31.3912223257
  H         7.5981453666        7.7990311991       29.6975036279
  C         6.8239975705        6.0226923458       30.6235032681
  H        -7.9807351875        9.4205641986       24.7156281109
  H        -7.5297355786        8.8238715810       26.1921737301
  C        -9.2110281563       10.1688934785       26.1748956921
  S        -3.0145566669       14.0442368969       37.1986393557
  C        -2.5212646412       16.6901512408       37.7461036763
  H         2.5764776680        8.0664761252       10.1621360964
  H         2.7931983583        6.3407231269        9.8589479346
  H         1.9750934648        7.0019615172       11.2864334830
  H         7.5768115844        5.5559723622       30.0035903789
  H         5.7940377509        5.8378852377       30.2447158954
  H         6.7397393566        5.6613502986       31.6361566722
  H        -9.9079723684       10.4249502680       25.3674167574
  H        -9.1836181870       11.0016633704       26.8912619256
  H        -9.7499848342        9.3379301926       26.6127231093
  C        -3.2862835389       14.8294210097       38.7537265027
  N        -3.1963273989       16.1600517268       38.7854588957
  O        -2.3312078141       17.8366786519       37.5260782350
  S        -4.2156160904       14.1257777587       40.1324367324
  C        -3.4557525196       16.9817864215       39.9756459178
  H        -3.5458203062       18.0054549273       39.7166671723
  H        -4.4366453562       16.7623600191       40.4302775495
  C        -2.3557044894       16.8732892474       41.0335181315
  H        -1.6134874546       17.6574526359       40.8386555932
  H        -2.8572275398       17.0700391748       42.0396606991
  H        -1.9517564803       15.8900571420       40.9074844394
