352
i=
  H         4.5670796203        1.3531648133       12.4749935659
  C         3.8225430168        2.1270185800       12.7144683477
  H         4.3915553454        3.0867692812       12.9530165441
  C         3.0710359509        2.2055047670       11.3690378537
  C         2.9545837436        1.9430879757       13.9222996262
  C         4.0066795344        2.3812312397       10.2137251327
  H         2.4746829119        3.1299369475       11.4760956221
  H         2.4213300441        1.3724202291       11.1922635454
  H         3.1542743518        2.6475676145       14.6890663560
  H         3.0826722680        0.8933331425       14.3527600158
  H         1.9052349071        2.0169377176       13.6871573050
  C         4.4972684492        1.0624315429        9.6370758253
  H         3.3745488426        2.7501162201        9.4417643868
  H         4.7761455412        3.1008105785       10.4008894598
  C         5.2169587544        1.2863340901        8.3184916181
  H         3.6544439320        0.3250894453        9.5875500258
  H         5.2611864506        0.6176584587       10.2369219925
  C         6.5287871039        2.2430897495        8.4349563238
  H         4.5960947295        1.7625870138        7.6078171325
  H         5.5320169241        0.2711610437        8.0300504964
  C         7.7628523868        1.7275192475        9.1630575572
  H         6.9945182642        2.3488830436        7.4433115259
  H         6.2653907191        3.1839401339        8.7368586797
  C         8.9848762128        2.6687652743        9.3492728643
  H         8.0634871681        0.8578327873        8.5528352723
  H         7.5832736936        1.2508128359       10.2160708807
  C         8.6020382500        3.9373942726        9.9696594143
  C         9.4787045929        3.3645237592        8.0911556716
  C        10.1640908716        2.0132825488       10.0332233837
  C         8.8166735533        5.0588870266        9.2082318186
  C         8.1182212067        4.2741886025       11.1889094462
  C         9.4087343831        4.7267481196        8.0304681908
  C        10.0275683716        2.7828741834        6.9524558278
  H         9.7294696317        1.4667212110       10.8615406948
  H        10.5520134911        1.1203339005        9.4688726813
  C        11.3662307184        2.9029377044       10.5869122814
  S         8.2904236318        6.5302276405        9.9950795032
  C         7.9178469112        5.6350649377       11.3774898593
  H         7.9497703864        3.4609645490       11.9018279424
  C         9.8978714696        5.3821304935        6.9379890971
  H        10.0947357335        1.7349471909        6.9657534880
  C        10.4513564355        3.4076297220        5.8414614373
  H        11.0826007920        3.8151013281       11.0584700420
  H        12.0591504267        3.3242266498        9.8435894906
  C        12.1824202394        2.1397610565       11.5698628652
  C         7.4027693220        6.3148043922       12.6943091953
  C        10.3790748860        4.7697393544        5.7777365521
  H         9.8925814103        6.4445662298        7.0113336881
  C        10.8405747440        3.0392819909        4.5566607003
  H        13.1496761255        2.6037795811       11.6863608861
  H        12.4355631026        1.1143912622       11.1557006498
  C        11.5460586492        2.0960312455       12.9711963266
  C         7.4905416712        7.6649101150       12.9809200343
  C         6.9833907118        5.4589082825       13.8106918889
  C        10.6959894966        5.4795534005        4.4936074001
  C        10.9393528537        4.1381230307        3.7057758462
  S        11.1541887970        1.5194179868        3.7186711584
  H        11.1054432162        3.0313955167       13.1444533455
  H        10.6823432617        1.3499707260       13.0777282149
  C        12.5903402369        1.9056321129       14.0971338708
  N         7.8773732184        8.6213212158       12.0383903313
  C         7.1786740296        8.2150588106       14.1622829007
  C         6.7158558001        5.9931464499       15.0710436737
  H         6.9019718253        4.3644498657       13.6613953410
  C        11.9970127386        6.2743948764        4.5908458059
  C         9.4919452492        6.2960378955        3.9591861350
  C        11.2565895632        3.7366710285        2.3931749419
  C        11.3986229939        2.4116910961        2.2703417748
  H        13.4862448223        2.5297691027       13.8740496790
  H        12.9829892221        0.8789011275       14.0585777215
  C        12.0714863172        2.2028338130       15.4552709558
  S         7.8500105701       10.0657091315       12.8061122497
  N         7.2964970852        9.6105090591       14.2602365288
  C         6.9548366387        7.4141124390       15.2845174221
  H         6.4482614581        5.2835274199       15.8384486624
  H        11.8940254827        7.0224456324        5.4347737708
  H        12.1490671954        6.7823078383        3.7053625029
  C        13.2116183791        5.3835200579        4.8064459298
  H         9.3603110730        7.2034591895        4.4619807881
  H         9.8789249106        6.6425576714        3.0057174967
  C         8.2058490505        5.5055215453        3.6769150886
  H        11.3956377883        4.4728957788        1.6383541659
  C        11.7699166452        1.7217057090        1.0282834441
  H        11.7803029721        3.2448379731       15.3933043620
  H        11.1200801892        1.6418718596       15.5155917576
  C        13.1357687374        1.7843731680       16.5309229967
  C         6.7664615306        8.0249056251       16.5519800333
  H        13.0795903774        4.7273646446        5.7036914062
  H        13.4685218234        4.7279037099        4.0023946394
  C        14.4500777449        6.3030950092        4.9034895991
  H         7.8919819595        5.0029696780        4.5382036640
  H         8.4043873273        4.6545712809        3.0074892385
  C         7.0860474910        6.2692790458        3.0372890644
  C        11.9202317064        0.3320270252        0.9340733219
  C        11.9407440829        2.4637752068       -0.2415838221
  H        14.1088863209        2.2743458831       16.2012239896
  H        13.2636944650        0.7418590290       16.3947585467
  C        12.7861723616        2.1585334971       17.9340607860
  H         7.0428379937        9.0610692607       16.5283319959
  C         6.2833994702        7.6350797706       17.7661169542
  H        14.3836739233        6.9685634384        5.8005456617
  H        14.4876183862        6.8900434721        3.9469008232
  C        15.7243667431        5.5708895802        5.0802379372
  H         6.7844343048        7.0048902569        3.7408612580
  H         7.3816860758        6.8680733308        2.2087716274
  C         5.8982633995        5.3438880122        2.5798644780
  N        11.6165868810       -0.6243062496        1.9014869495
  C        12.2783049517       -0.2933928545       -0.2267119922
  C        12.3055876845        1.8405246427       -1.4321316564
  H        11.8598307546        3.5410372714       -0.2699702254
  H        12.9081454655        3.2097215139       18.1114369272
  H        13.4946897047        1.6544243494       18.5886631243
  H        11.7460707428        1.8724379152       18.0924028538
  S         5.7920589525        5.9978019618       18.2343665794
  C         6.2316172980        8.6762455790       18.8332862557
  H        15.5389471118        4.4881122283        4.7444039211
  H        16.4124320367        6.0643654619        4.4619145711
  C        16.0540092044        5.6159145090        6.5474781359
  H         5.5390082037        4.7267152998        3.3447555748
  H         6.1706511307        4.5558832164        1.8853218817
  C         4.8789385376        6.2644212815        1.9288608301
  S        11.8867526383       -2.1157614779        1.3433086345
  N        12.4013236335       -1.6851572343       -0.1373113779
  C        12.4682294330        0.3643345925       -1.4684106585
  H        12.3967533347        2.4940603821       -2.2721108755
  C         5.5760890023        6.7603037373       19.8973892853
  N         5.7578485141        8.0738134108       19.9374322687
  O         6.4647444632        9.8576838700       18.6254604286
  H        16.1091394136        6.6524935547        6.9712219850
  H        15.2932707890        5.1346282806        7.0985345520
  C        17.3382700428        4.8991429064        6.8210698478
  H         5.4205427368        6.9270290682        1.3077617511
  H         4.3532438305        5.6430865475        1.3150006911
  C         3.9832198616        6.9537529093        2.9140243946
  C        12.8396993169       -0.4907241073       -2.6111604947
  S         4.9036417502        5.9688661766       21.3498341490
  C         5.5900201032        8.8428107957       21.2079318301
  H        17.1040544502        4.4109820462        7.7598808036
  H        17.4168949744        4.0197337806        6.1613488188
  C        18.5420780947        5.8397825940        7.0166106764
  H         4.1563810756        6.4710344110        3.8832502872
  H         2.9364010005        6.8186979523        2.7655034400
  C         4.2429854264        8.4859414552        2.7016882465
  H        12.6991068857       -1.6013852179       -2.5157757497
  C        13.3420688577       -0.1899107433       -3.8568952807
  H         4.6823836095        8.5457783764       21.7202655455
  H         5.4123344082        9.8706334225       20.9432911029
  C         6.8365267769        8.8102410379       22.0628462159
  H        19.3872916892        5.2807855924        7.4801139193
  H        18.3701832375        6.5781054241        7.8166332503
  C        19.0674275436        6.5462849976        5.7326197984
  H         3.9004650626        9.0537359816        3.5692214840
  H         5.3349047899        8.6552556209        2.7450402820
  C         3.5668931998        8.9112315226        1.4061700798
  S        13.7763245932        1.3800823576       -4.3775293275
  C        13.5013925420       -1.2727976717       -4.8627641025
  H         7.2333029609        9.8507820411       22.1508687063
  H         7.5548146410        8.0528707782       21.7468680679
  H         6.6482840496        8.4730663839       23.0688004420
  H        18.5862662838        7.4843982834        5.6922646660
  H        20.2026012021        6.7222570161        5.8858343492
  H        18.8110459386        5.9956286067        4.7962452820
  H         3.5631853591        9.9881824025        1.2598030207
  H         4.0347799974        8.4418231142        0.5231041341
  H         2.5587485758        8.4933151972        1.3439853692
  C        14.1662448194        0.5891404172       -5.9529607564
  N        14.0526626467       -0.7616911541       -5.9584474328
  O        13.1645178152       -2.4335138893       -4.7618302719
  S        15.1680637114        1.4159204885       -7.1443876722
  C        14.3052154503       -1.5629119912       -7.1331236099
  H        14.3006035553       -2.6229689565       -6.8735344571
  H        15.2664278026       -1.3490845797       -7.5846826144
  C        13.2310887378       -1.4119314819       -8.2081804824
  H        13.2644186651       -0.3687524552       -8.5867604349
  H        12.3088834962       -1.7779938136       -7.8400174400
  H        13.6880073692       -2.0406470432       -8.9542872166
  H        -3.6719693897       14.4967742601       16.0965227389
  C        -3.6430636253       13.4206566328       16.2311891589
  H        -4.6804770849       13.0719179901       16.4339112495
  C        -2.7477954714       13.0183586427       17.3889052019
  C        -3.1017009175       12.8183174461       14.9212832894
  C        -3.2930333735       13.2078695445       18.7445559852
  H        -2.4461319783       12.0065273296       17.3146135854
  H        -1.9183548694       13.6765047566       17.3200333100
  H        -3.7749811866       12.8284177949       14.0399937993
  H        -2.2096542563       13.2593026852       14.5418623798
  H        -2.9326854819       11.7743527476       15.0361054912
  C        -2.5642922803       12.3721790790       19.7866091834
  H        -4.4132658800       13.1928588800       18.7386491087
  H        -3.0880409304       14.2381958022       18.8988476708
  C        -2.9456206348       12.5674873359       21.2935829826
  H        -2.5765724557       11.2790607223       19.5982474447
  H        -1.5388949246       12.4912829757       19.6358697470
  C        -1.8530415171       12.0628101729       22.2050001770
  H        -3.7520790138       12.0110433311       21.6659775526
  H        -3.1260957127       13.6985252014       21.4277599109
  C        -0.7727100270       13.1434758624       22.5308771473
  H        -2.1758237920       11.6462667552       23.1373880236
  H        -1.4347826645       11.2772774777       21.5451428779
  C         0.4954356583       12.5576399779       23.3420681091
  H        -0.3860059740       13.6270877227       21.6016867089
  H        -1.2790432890       13.7872932358       23.2329054557
  C         0.9895118820       11.2089625854       22.6591726964
  C         0.0395759344       11.8871818775       24.5941648579
  C         1.5423966716       13.6998219279       23.7100513463
  C         0.7604985068       10.1474741559       23.5034896673
  C         1.5138281796       10.7909377396       21.4454773147
  C         0.1288615404       10.5414184737       24.6711713734
  C        -0.4840585458       12.4492212594       25.6968580242
  H         1.5928561626       14.2848989799       22.8413589081
  H         1.2021356474       14.3343524969       24.4600780632
  C         3.0120871715       13.2227639982       23.9839342123
  S         1.1723674916        8.6235163352       22.8428217434
  C         1.6820201507        9.4047516401       21.3395539059
  H         1.6335916107       11.5827765379       20.7337967043
  C        -0.2805036546        9.9304851403       25.8135505572
  H        -0.7656441901       13.4952286106       25.6885216988
  C        -0.8029086431       11.8651349217       26.8854692223
  H         3.4099695439       12.6171084267       23.0926305853
  H         2.9121472689       12.5937391589       24.8717179787
  C         4.0810457771       14.3100113734       24.2813363401
  C         2.1032151147        8.7044434070       20.0630407917
  C        -0.7512326313       10.5144197312       27.0058675559
  H        -0.2146749415        8.8932899646       25.9097685728
  C        -1.1076481290       12.2999536107       28.1093994790
  H         4.9753876406       14.0777677210       24.9074156300
  H         3.6513620078       15.1618194588       24.8384406949
  C         4.5268364704       14.9185315260       22.9862958817
  C         2.0792342528        7.3124424506       19.8270270249
  C         2.6374271381        9.5157828312       19.0011614800
  C        -1.1899123208        9.8781996774       28.2482975143
  C        -1.3526050660       11.1933295649       28.9535310867
  S        -1.3117486443       13.8222923859       28.8864037850
  H         4.8805427618       15.9002152519       23.1036039832
  H         3.6462772697       15.0345365916       22.3510082984
  C         5.6048782884       14.0829486830       22.3814941895
  N         1.6601317449        6.4029498325       20.7443300271
  C         2.3736321467        6.8276789037       18.5780199530
  C         2.8832289240        9.0341541209       17.7001262601
  H         2.7908288304       10.5903387604       19.2478259821
  C        -0.0567321759        9.1078204380       29.1040581671
  C        -2.3945041536        9.1333898982       28.0185513658
  C        -1.7733485436       11.6159175042       30.2504308621
  C        -1.7489300189       12.9829162555       30.3369559608
  H         6.5624227031       14.7052354283       22.3014520542
  H         5.7348348373       13.1086979624       22.8195462495
  C         5.1730954422       13.7996276003       20.9046923111
  S         1.4836235268        5.0169709179       19.9858088206
  N         2.0178003441        5.4915535113       18.5252309731
  C         2.8015085565        7.5630349486       17.4575798359
  H         3.1256882951        9.6795280127       16.8692126261
  H         0.2079913546        8.1185373907       28.6069863896
  H        -0.3683822815        8.7541869289       30.1115188524
  C         1.2120433361        9.9451147057       29.2519659224
  H        -2.2202941975        8.3016714704       27.4564822266
  H        -2.7949898116        8.8261173953       28.9459672897
  C        -3.5020963826        9.8997733632       27.3466090375
  H        -1.8643248018       10.8347313711       31.0053506436
  C        -2.0588301525       13.7927019257       31.6185581484
  H         4.7460348756       14.7116041007       20.5363273091
  H         4.3944685790       13.0792287893       20.6938806171
  C         6.3591721413       13.4713990933       19.9734635855
  C         3.0250283758        6.8864740608       16.2099175372
  H         1.5597008031       10.0701107792       28.2574676834
  H         1.0150177333       10.8401560658       29.8003827258
  C         2.2655527001        9.1617524242       29.9986064699
  H        -3.2573738536       10.4218738914       26.4565493968
  H        -3.8087783886       10.7607965900       28.0089711516
  C        -4.7397982944        9.0752632835       27.1641307426
  C        -1.9903286821       15.2312384116       31.7691924788
  C        -2.3679087442       13.0445474198       32.8822549900
  H         6.0013852796       13.2243333969       18.9571293655
  H         7.0525379629       14.3321897258       19.7256171025
  C         7.3120838768       12.4104546575       20.5515363849
  H         2.8043325710        5.8185520808       16.2882903325
  C         3.3667393856        7.3156542967       14.9795039740
  H         2.7388075460        8.4713587933       29.3109717274
  H         1.7204254414        8.7565011566       30.8513327959
  C         3.4320478028       10.0153759007       30.5037117367
  H        -4.5412674592        8.3122889083       26.4830865249
  H        -4.9838671851        8.5314884990       28.0803036955
  C        -5.9168421658        9.8584484183       26.6729818031
  N        -1.7874576301       16.2188772442       30.8109448193
  C        -2.1711019983       15.8244796623       33.0263544331
  C        -2.6633535202       13.6002612172       34.0710361695
  H        -2.2630375816       11.9527951336       32.8239712742
  H         6.6502337592       11.7359299206       21.1577152188
  H         7.8959497346       11.8890242740       19.7931464558
  H         8.1022554339       12.8846428783       21.1682475203
  S         3.9296072090        8.9019686075       14.6018949344
  C         3.3340371978        6.3833295049       13.9044125800
  H         3.4922374886       10.9269523801       29.9185002514
  H         3.2448915170       10.3887979178       31.5047051726
  C         4.8904619007        9.3777812923       30.4028792379
  H        -5.6089483990       10.4296502197       25.8266353219
  H        -6.1194428998       10.5156295976       27.5250457227
  C        -7.0887145185        9.0715228628       26.0728718181
  S        -1.9515653609       17.6907328984       31.3951287183
  N        -2.0948645978       17.1897072213       32.9401031166
  C        -2.5238545594       15.1093691002       34.1804268374
  H        -2.6728149561       12.9406293376       34.9029019374
  C         4.2222929923        8.3362284277       13.0024240760
  N         3.9356445573        6.9929077740       12.8814993247
  O         2.8393713981        5.2331485252       13.9444782468
  H         5.5786999133       10.0925389944       30.4563793858
  H         5.1188424824        8.9679039546       29.3855937459
  C         5.1652440398        8.2278553893       31.3764995631
  H        -6.7418683156        8.2909586396       25.3663473502
  H        -7.7055243621        8.5739200010       26.8593093911
  C        -7.9400389021        9.9606348485       25.1922027093
  C        -2.8780082867       15.8223461314       35.3558020929
  S         4.7134497118        9.2997686694       11.7341900947
  C         3.9652531669        6.2482451179       11.6173564286
  H         5.8862329472        8.5107380554       32.0668644999
  H         4.2527681768        8.0702156364       31.8914714116
  C         5.3985954583        6.9820200093       30.5487609410
  H        -7.3385487003       10.0761859204       24.2748420727
  H        -8.0589235890       10.8942245245       25.5676855100
  C        -9.2695564791        9.3640696447       24.7979867752
  H        -2.5295585746       16.8511904725       35.3590932918
  C        -3.4658038377       15.4749686866       36.5676722939
  H         4.7723201283        6.6489647990       11.0449590814
  H         4.3025448750        5.2571107852       11.8636202821
  C         2.6360902608        6.3277512803       10.8624517216
  H         4.7980613062        6.9517853722       29.6361618641
  H         4.9669469151        6.1032463493       31.1493778010
  C         6.9024187084        6.7127690162       30.2144878652
  H        -9.5978876792        9.8044375636       23.8375474648
  H        -9.1704090156        8.3732064086       24.4914512109
  C       -10.3331684857        9.6612509365       25.8553145576
  S        -4.0694587896       13.9790786212       36.9168201092
  C        -3.7568099327       16.5170356807       37.5840169792
  H         1.7605134947        6.1473068406       11.3941796386
  H         2.6441990335        7.3612860342       10.3887654371
  H         2.6375218035        5.6598690663       10.0752791696
  H         7.2179349127        7.4416025452       29.3670342769
  H         7.1201698656        5.6715675266       29.8614934908
  H         7.5297481295        6.7233534812       31.1070468521
  H       -10.2570390282        8.9667865974       26.6800005422
  H       -11.2448802962        9.4874113143       25.3282475037
  H       -10.2530484916       10.6225666030       26.2337728657
  C        -4.4093822572       14.6816987647       38.5506530111
  N        -4.3745414914       15.9960311090       38.6378464241
  O        -3.6588229014       17.6809521929       37.2860917983
  S        -5.1020842275       13.8520826501       39.9040717626
  C        -4.5431220982       16.6297006953       39.9377056405
  H        -4.6897027527       17.6835267571       39.9748205206
  H        -5.4289435601       16.2933035473       40.4506704097
  C        -3.3503624276       16.3585876378       40.8215050586
  H        -3.5694329398       16.0065334125       41.8773785448
  H        -2.5534738469       15.7540244318       40.4190907027
  H        -2.9151376919       17.3185147965       41.0475572515
