352
i=
  H         2.5746929131        1.1443722344       12.9703849657
  C         3.5792260595        1.4717189993       12.6224404947
  H         4.2621444260        0.6712609922       12.2791216171
  C         3.1811408127        2.4973021614       11.5291389427
  C         4.3245158149        2.1411784957       13.7321535579
  C         4.2482680169        2.7634293751       10.4610672836
  H         2.9431346750        3.4349775252       12.0604853915
  H         2.3002070984        2.0731679565       10.9940488428
  H         5.1900178606        1.5989037183       13.9629667848
  H         3.8518535211        2.2573036692       14.6267777515
  H         4.7329198314        3.0854319089       13.4684039926
  C         4.6646794521        1.4547952937        9.7640669086
  H         3.8566876983        3.4677563751        9.7240344442
  H         5.0584286124        3.2518178724       10.8880750810
  C         5.3479027919        1.7379059913        8.4123623695
  H         3.7515035769        0.9652202633        9.6583878543
  H         5.2857033120        1.0040809045       10.4867610804
  C         6.6089749135        2.5678048856        8.4797476165
  H         4.5894022742        2.2231945095        7.7893193987
  H         5.5248941564        0.8897473223        7.7770283425
  C         7.8938246836        1.6958007484        8.8974083859
  H         6.8916936940        3.0778861532        7.5546460502
  H         6.5065581851        3.4616294562        9.0840779832
  C         9.2351856020        2.5770614250        9.1745484526
  H         8.1378908261        0.9625589638        8.0997351332
  H         7.6949495367        1.1760108926        9.7641112544
  C         8.8227959798        3.8277134297        9.8818747148
  C         9.6615144968        3.3216481651        7.9345328772
  C        10.3529630863        1.8630547282       10.0046247121
  C         9.0111849667        4.9319573915        9.0441297848
  C         8.3387538692        4.2461171361       11.1335514236
  C         9.5559410173        4.6426433886        7.7958454060
  C        10.2128102382        2.6898855171        6.7584643596
  H         9.9650074839        1.3497150820       10.9154389891
  H        10.7081923940        1.0509220272        9.3750393605
  C        11.6632398822        2.6542610154       10.2613333755
  S         8.5751737539        6.3940802959        9.7403542693
  C         8.2231658713        5.6046705072       11.2172264244
  H         8.0915640032        3.4893235240       11.8577195956
  C         9.8956945943        5.3158937082        6.6587474926
  H        10.2866112010        1.6508519623        6.8148075151
  C        10.5645866392        3.3793286028        5.6231233246
  H        11.4944396428        3.6783705744       10.6563230274
  H        12.1467584707        2.8698845731        9.2928429875
  C        12.6824137231        2.0191211526       11.1915388901
  C         7.7132637939        6.3034659356       12.4625733617
  C        10.4826626299        4.7444499244        5.5060940625
  H         9.6582820742        6.3643659081        6.5947599173
  C        11.0416926095        3.0602096474        4.4350060559
  H        13.6945774365        2.4835737218       11.2526236238
  H        12.8466914421        1.0869285483       10.8264030901
  C        12.1034701074        1.8242310772       12.6462882910
  C         7.7174797446        7.6869728965       12.6610781769
  C         7.1708303609        5.4771237618       13.5381196325
  C        10.8658087351        5.4446749336        4.2056189547
  C        11.2204105836        4.1019152900        3.5657372314
  S        11.2534587082        1.5206065682        3.7331716312
  H        11.4295165960        2.6554236322       12.8371721855
  H        11.6730177306        0.8310201879       12.8268374574
  C        13.2106673907        1.9886052178       13.6932982939
  N         8.1682955795        8.6592222934       11.7598518334
  C         7.2105267068        8.2631156123       13.8381596056
  C         6.7803231871        6.0802658637       14.7539261809
  H         7.1370544375        4.3858020054       13.5820699658
  C        12.0698299508        6.3715735230        4.4342973416
  C         9.6643214327        6.1809789115        3.6245528409
  C        11.5275995952        3.6457556466        2.2612942310
  C        11.6339853205        2.2982303449        2.1617759106
  H        13.5281513782        3.0742821998       13.7225888823
  H        14.0460430816        1.3104869591       13.5451427660
  C        12.7284528864        1.5145824669       15.0827789946
  S         7.9384702964       10.1658598579       12.4782866367
  N         7.3471225495        9.6289059586       13.9040414812
  C         6.9107846576        7.5080078380       14.9547792938
  H         6.2872331891        5.4579327596       15.4335124331
  H        11.6961090477        7.1573282734        5.0930259206
  H        12.3243030392        6.8262632550        3.4733752393
  C        13.2678044733        5.5164915749        4.9152558769
  H         9.0878618893        6.6447506368        4.3913850770
  H        10.0294160502        6.8723621336        2.8306112804
  C         8.6476725293        5.1855773627        3.0474013750
  H        11.7162807189        4.4019389396        1.4865517514
  C        11.8164477582        1.5065318768        0.9327945495
  H        11.7637128311        2.0829232525       15.2230889320
  H        12.4568905845        0.4017215950       15.0749673718
  C        13.7099694946        1.9101571355       16.2256944360
  C         6.6921628480        8.2389487541       16.1672545866
  H        13.0597790904        4.8335856645        5.6948164370
  H        13.5694508234        4.8965474099        4.0825358752
  C        14.5520216593        6.2949840938        5.3204426000
  H         8.5075455662        4.3525648406        3.7295150579
  H         9.0855407763        4.7576994756        2.1758025822
  C         7.2557360104        5.8364606303        2.6373828714
  C        11.9186469747        0.1184712318        0.8182419855
  C        11.9700213024        2.2233521529       -0.3538480091
  H        14.5000388623        2.3422841271       15.7256136762
  H        14.1195839301        0.9803552191       16.6133602376
  C        13.0869202988        2.8062371898       17.3005752289
  H         7.0860691399        9.2345701618       16.1393942227
  C         6.3714750278        7.7743849219       17.4573494586
  H        14.1900313154        6.9167890941        6.0650251749
  H        14.8595628891        7.0115549609        4.4847686492
  C        15.6857484670        5.3823284561        5.8106299531
  H         6.8220720307        6.3666681981        3.4439843413
  H         7.3706791311        6.4894486676        1.8145033973
  C         6.2315781045        4.8007704497        2.1843472223
  N        11.7393617031       -0.7617324286        1.8770613433
  C        12.2348599738       -0.6315944421       -0.3154370263
  C        12.2796340243        1.5069063571       -1.5410063944
  H        11.5383127580        3.1517500724       -0.5687922771
  H        13.8438549874        3.2776165854       17.9282404306
  H        12.5200391166        2.2922900968       18.1158919938
  H        12.4828288989        3.5664438638       16.8452118973
  S         6.0954622806        6.1087906525       17.8843780208
  C         6.3243339061        8.7994261481       18.5830397030
  H        15.3715419285        4.7871122393        6.6410401932
  H        16.0918316673        4.7174388467        5.0805027146
  C        16.9585554812        6.0827255275        6.2889997894
  H         6.0735293298        4.0808107573        3.0243718011
  H         6.6710195028        4.2322388695        1.3419677549
  C         4.9478932128        5.4155528321        1.6834625711
  S        11.9206282470       -2.3246470371        1.4699433943
  N        12.2502995168       -2.0345609581       -0.0660112170
  C        12.4424499677       -0.0002427071       -1.5359352822
  H        12.2915330354        1.9942691174       -2.4426804820
  C         6.0175617927        6.7500717555       19.5642976547
  N         6.0192678735        8.1077658526       19.6598128754
  O         6.3599545511       10.0184021861       18.5054309492
  H        17.3759451303        6.4446438762        5.3406993599
  H        16.5830082036        6.9816403762        6.7662112720
  C        17.8830610194        5.3175295917        7.1949434388
  H         4.9623470684        5.7570205576        0.6400725944
  H         4.1672848622        4.6325659902        1.5626819241
  C         4.3737378306        6.5868910016        2.3784658181
  C        12.6984896611       -0.7969486058       -2.7026254297
  S         5.9503197444        5.8675243310       21.0618464842
  C         5.8545266623        8.8198194511       20.9699541116
  H        17.4010671165        5.2697198972        8.1203011675
  H        18.0003895227        4.3297338469        6.8358158451
  C        19.3262857711        5.8277608351        7.3207461655
  H         4.6365316555        6.6658000217        3.4423789733
  H         3.2905195070        6.5098237583        2.5461536372
  C         4.5917690808        7.9834268134        1.7504766392
  H        12.6931995879       -1.8716826889       -2.5274485684
  C        13.2464078301       -0.5209386875       -3.9562068231
  H         5.0406775354        8.3426645192       21.5344774791
  H         5.5518787571        9.8065854585       20.7327977193
  C         7.2594309354        8.8612363462       21.6984334695
  H        19.8148697397        5.4325258604        8.2410597168
  H        19.2910128097        6.8484599289        7.4770814684
  C        20.1505664425        5.5821313755        6.0992870802
  H         5.5645024715        8.4122350590        2.1214303925
  H         4.8441489388        7.7541506816        0.7317108963
  C         3.4940247216        9.0720799042        1.9850857712
  S        13.8140867343        1.0075359709       -4.4539129764
  C        13.3537123936       -1.5553853184       -4.9330950410
  H         7.3589816081        7.9887998178       22.3161501840
  H         7.2159037157        9.7207081747       22.3540626301
  H         8.0898079655        8.9974641498       20.9988004811
  H        19.9255704425        4.6931139173        5.5529835991
  H        20.0439773157        6.4577519515        5.4229089546
  H        21.1478515262        5.4226476269        6.4443687841
  H         2.4930320571        8.7397919705        1.9714784909
  H         3.5862141423        9.5247497842        2.9894446217
  H         3.5817668810        9.9809466564        1.2891588615
  C        14.2468863533        0.1761356864       -5.8993153797
  N        14.0390821925       -1.1671496336       -5.9770406348
  O        13.0287614520       -2.7161920504       -4.7030733204
  S        14.8993826259        0.9002672347       -7.4008384207
  C        13.9858732549       -1.9799243631       -7.2110845896
  H        14.0650015259       -3.0409250137       -6.9184138850
  H        14.8831358349       -1.8504770830       -7.7213133014
  C        12.6855185183       -1.7252038319       -8.0336881103
  H        11.8422409644       -2.2759613952       -7.5541254662
  H        12.7242064913       -2.1378178837       -9.0454858780
  H        12.4196156264       -0.6861823484       -8.1107353493
  H        -2.2721601635       14.4409394203       15.4746688663
  C        -2.9111381935       13.8530565769       16.1078419187
  H        -3.6518751331       14.4684529489       16.6335768256
  C        -1.9645717503       13.3560707493       17.1358017752
  C        -3.6020542498       12.7070545348       15.4311068379
  C        -2.7198672993       13.0243989891       18.4421982491
  H        -1.4290015045       12.5222348259       16.7520592437
  H        -1.2454615844       14.0789741482       17.3452565426
  H        -4.5080435476       12.3604192880       15.9929636136
  H        -3.7921760868       12.9144820970       14.4155746717
  H        -2.9657071853       11.8427229522       15.2788394301
  C        -1.7909432712       12.4215538647       19.5198230951
  H        -3.6584596944       12.3809065910       18.3970786086
  H        -3.2293356089       13.9315587125       18.8789309660
  C        -2.2273900763       12.7337523619       20.9253914341
  H        -1.7862592676       11.3737414059       19.3497857663
  H        -0.7399069462       12.7885915902       19.4596186989
  C        -1.3436729396       12.1506215131       22.0649612818
  H        -3.2936197125       12.4385729111       21.0300642758
  H        -2.2419836437       13.7623067126       20.9663602080
  C        -0.2552560579       13.1737165113       22.5172885157
  H        -1.9381474329       11.9332850888       22.9274809501
  H        -0.8959597018       11.1972286987       21.7794285247
  C         1.0146671657       12.5828070122       23.2145806151
  H         0.0379306589       13.7080763829       21.5971364713
  H        -0.6675251642       13.9859369769       23.1217223868
  C         1.4678424268       11.3286602529       22.4597889206
  C         0.7495025905       11.7974373576       24.4292700042
  C         2.1759376506       13.5895924921       23.3239054680
  C         1.3133286974       10.1553005917       23.2449916687
  C         1.8190402490       11.0522387269       21.1039166594
  C         0.7908761248       10.4385901426       24.5175096245
  C         0.3935477805       12.3649129288       25.6744923609
  H         2.3841993669       14.0370061378       22.3713603257
  H         1.8546985976       14.4839423223       23.8723599954
  C         3.4792565237       12.8963793529       23.7268759467
  S         1.8499676619        8.7693229726       22.3630076558
  C         2.1136326797        9.7110789172       20.8921008260
  H         1.7560341362       11.8425324606       20.3613329081
  C         0.4335371857        9.8565173176       25.6963824971
  H         0.2680479287       13.3987181592       25.6143100812
  C         0.2103094990       11.7752327259       26.8949712628
  H         3.9096383445       12.0602097872       23.1185323074
  H         3.1960203559       12.4031424614       24.6852104164
  C         4.5695932072       13.9241483419       24.1965013367
  C         2.5258495690        9.0889367193       19.5749631797
  C         0.1199313843       10.4529799005       26.9444555799
  H         0.5622867435        8.7980352748       25.7764859904
  C        -0.1125724446       12.1044531863       28.1803539572
  H         5.2977429597       13.4376001813       24.8027817259
  H         4.1735396749       14.5827505571       24.9706395306
  C         5.2262158078       14.6770344418       23.0413701945
  C         2.5735858495        7.6752161483       19.2314604230
  C         2.7056973568        9.9201688383       18.3875641278
  C        -0.1328633917        9.6844115491       28.2278947696
  C        -0.3258768013       10.9811700671       28.9427959350
  S        -0.3095394845       13.5955965922       28.9480081107
  H         5.7283450937       15.5619353479       23.5199502422
  H         4.5632151801       15.1286736739       22.2580863477
  C         6.3994627410       13.8117005672       22.5034378002
  N         2.4016077618        6.6351984033       20.1879557442
  C         2.8608867317        7.0887502954       18.0194023292
  C         3.0556620614        9.3550729204       17.1561823916
  H         2.7322978657       10.9881200018       18.5089101374
  C         1.0992524254        8.8449498647       28.7138847607
  C        -1.3095349454        8.7537719029       28.1398372796
  C        -0.6548666916       11.2929491136       30.3015437549
  C        -0.5797235899       12.6569636933       30.4095003036
  H         7.3031784775       14.4294574651       22.5238527768
  H         6.4479237675       12.9729826397       23.1865616815
  C         6.1883357791       13.4569330278       21.0413984994
  S         2.6499936049        5.1621680394       19.5409180219
  N         2.9599148705        5.6749966881       18.0334276032
  C         3.0613037307        7.9060209840       16.8928951636
  H         3.3539716466       10.1174146199       16.5052694108
  H         1.2847679521        8.1414675202       27.8975250856
  H         0.7684341084        8.3084487707       29.6251815359
  C         2.4301846843        9.6325575856       28.8530615176
  H        -1.2195597144        7.8673866971       27.4846513631
  H        -1.4573613719        8.3730625962       29.0975610546
  C        -2.5690894048        9.5293879388       27.8914433872
  H        -0.9291863734       10.4788306786       30.9547399454
  C        -0.8879285178       13.3344636543       31.6675824883
  H         5.8730426245       14.3085521339       20.5095270384
  H         5.4580689001       12.6738044936       20.8481782451
  C         7.5056373310       12.9388628671       20.5276645839
  C         3.4499787859        7.1770859652       15.6930829517
  H         3.1438405693        9.2196040210       28.1467337910
  H         2.1359449057       10.5861991947       28.4687651912
  C         2.9498922329        9.6465287516       30.3214895159
  H        -2.4740104972       10.2565944432       27.1235722576
  H        -2.8554509409       10.1573761785       28.7719772928
  C        -3.6789594259        8.5679172992       27.5294183282
  C        -1.0918019727       14.7376352448       31.8654383838
  C        -1.1071705768       12.5142424831       32.8737583608
  H         8.3196219667       13.5557859103       20.7961266506
  H         7.8652923352       11.9598270757       21.0043472730
  C         7.5349147472       13.0029267484       19.0496559737
  H         3.7415953979        6.1463530916       15.7708116765
  C         3.5906679639        7.6657122925       14.4321106048
  H         2.8733102535        8.6925094445       30.8344310161
  H         2.2429892752       10.3419891949       30.7925313668
  C         4.2929736625       10.2265464854       30.4322415384
  H        -3.4154468852        7.9005646008       26.6787294144
  H        -3.8369694273        7.9038702583       28.4252025241
  C        -5.0171308173        9.2286673834       27.3756788918
  N        -0.9606006876       15.7176098725       30.9163296167
  C        -1.5144391088       15.2647728223       33.0820773792
  C        -1.5734615332       13.0329520943       34.1092665890
  H        -1.0522392151       11.4329238547       32.8775554016
  H         7.9677873666       13.9186325397       18.6163059456
  H         8.0612866389       12.1249466984       18.5971265006
  H         6.5152381012       12.7376813032       18.7696708646
  S         3.7222178171        9.3241330078       13.8925620759
  C         3.6562070688        6.6579979192       13.3690279288
  H         4.4136534375       11.0423799914       29.7046794153
  H         4.4946742826       10.5603565090       31.4388957514
  C         5.3717338722        9.2116074628       30.2449151410
  H        -5.0453573530       10.0571803979       28.1438697000
  H        -5.8635295259        8.4919691757       27.5124167909
  C        -5.1965039455        9.8892149373       26.0533116165
  S        -1.1998498330       17.1787673397       31.5485174556
  N        -1.6698398335       16.6341809968       33.0054379940
  C        -1.8045534156       14.5065738413       34.2324373562
  H        -1.7376048653       12.3858393744       34.9909600465
  C         3.9059023490        8.6986079406       12.2851270339
  N         3.8145391447        7.3280291569       12.1924902468
  O         3.3766482883        5.4724416886       13.5323239283
  H         6.2880086521        9.8045573438       30.3100334123
  H         5.3294478219        8.6524208502       29.3387937444
  C         5.6415697462        8.3178894491       31.4416375387
  H        -4.4703692603       10.7442033933       26.0389438643
  H        -5.0034098097        9.3181105494       25.1576939975
  C        -6.5260461392       10.5672077474       25.8908504260
  C        -2.1960903189       15.2051529993       35.3955437047
  S         4.4035810648        9.5829604113       10.8628186402
  C         3.7303551383        6.5555608453       10.9837306690
  H         6.3228772072        8.8424773427       32.1887788857
  H         4.6671534051        8.0343271274       31.9515370218
  C         6.4990175201        7.0978713428       31.0822245207
  H        -6.6066044299       11.1503774998       24.9614851818
  H        -6.7444150334       11.1915538217       26.7604812856
  C        -7.7525929603        9.6667825027       25.7288244339
  H        -1.8915727201       16.1882326327       35.4165005157
  C        -2.7654236888       14.8520981127       36.5807841897
  H         4.2148107165        7.1089100229       10.1868194331
  H         4.2006732534        5.5643713154       11.1848437159
  C         2.3052061444        6.2076109958       10.5785005405
  H         7.4040753672        7.5952935847       30.6665863503
  H         6.0433581796        6.4744061721       30.3114203467
  C         6.7458942650        6.0950848831       32.1997134983
  H        -7.6517452510        8.9762046619       24.8992298682
  H        -7.8726138594        9.0009409456       26.5831356813
  C        -9.1649350316       10.2263296797       25.5013787692
  S        -3.3681718939       13.3208520638       37.0030801500
  C        -2.8515855189       15.8042905354       37.6748040652
  H         1.5908627186        7.0177397195       10.7493592246
  H         2.3223376221        5.9086384237        9.5004911024
  H         1.9120779275        5.3668669193       11.1347395212
  H         6.0380662282        6.0893805309       33.0072966141
  H         7.6395960597        6.3983147839       32.7252371440
  H         6.9132914926        5.1005618069       31.8380908281
  H        -9.3679986560       11.1904600520       26.0526823536
  H        -9.9719095686        9.4883427724       25.7043140051
  H        -9.4033983601       10.4206517787       24.4539563704
  C        -3.7805286026       13.9156232705       38.5997044868
  N        -3.5730217896       15.2269357184       38.7325037196
  O        -2.4294929842       16.9829833035       37.6694410491
  S        -4.8696407370       13.1196899575       39.7160941956
  C        -3.8759802873       16.0080824257       39.9208163098
  H        -3.9693529317       17.1094926879       39.7078799674
  H        -4.8911816353       15.8324916416       40.0719555016
  C        -2.8572565559       15.6941585154       41.1020496078
  H        -1.8823361524       15.3520724903       40.7659656034
  H        -2.7118627392       16.5903122002       41.6974261603
  H        -3.3526566526       14.9343087500       41.7725992200
